/*---------------------------------------------------------------------------*\
  =========                 |
  \\      /  F ield         | OpenFOAM: The Open Source CFD Toolbox
   \\    /   O peration     | Website:  https://openfoam.org
    \\  /    A nd           | Version:  dev
     \\/     M anipulation  |

   OpenFOAM for Windows 20.09 (v1)
   Built by CFD Support, www.cfdsupport.com (based on Symscape).
\*---------------------------------------------------------------------------*/
Build  : dev-d26757ee1926
Exec   : D:\app\Openfoam\20.09\cygwin64\opt\OpenFOAM\OpenFOAM-dev\platforms\cygwin64mingw-w64DPInt32Opt\bin\pimpleFoam.exe
Date   : May 29 2023
Time   : 19:45:33
Host   : "DESKTOP-HU5TJA8"
PID    : 15040
I/O    : uncollated
Case   : D:/app/Openfoam/20.09/sheng-dev/run/PIML/cases/channel395
nProcs : 1
fileModificationChecking : Monitoring run-time modified files using timeStampMaster (fileModificationSkew 10)
allowSystemOperations : Allowing user-supplied system call operations

// * * * * * * * * * * * * * * * * * * * * * * * * * * * * * * * * * * * * * //
Create time

--> FOAM Warning : 
    From function static bool Foam::functionObjectList::readFunctionObject(const Foam::string&, Foam::dictionary&, const Foam::string&, Foam::HashSet<>&, const Foam::word&)
    in file db/functionObjects/functionObjectList/functionObjectList.C at line 309
    Cannot find functionObject file graphCell
--> FOAM Warning : 
    From function dlOpen(const fileName&, const bool)
    in file MSwindows.C at line 1145
    dlopen error : "Error 126: 找不到指定的模块。\
"
--> FOAM Warning : 
    From function bool Foam::dlLibraryTable::open(const Foam::fileName&, bool)
    in file db/dynamicLibrary/dlLibraryTable/dlLibraryTable.C at line 109
    could not load "libPIMLfieldFunctionObjects.so"
Create mesh for time = 0


PIMPLE: No convergence criteria found


PIMPLE: Operating solver in transient mode with 1 outer corrector
PIMPLE: Operating solver in PISO mode


Reading field p

Reading field U

Reading/calculating face flux field phi

Selecting incompressible transport model Newtonian
Selecting turbulence model type RAS
Selecting RAS turbulence model kEpsilon
RAS
{
    RASModel        kEpsilon;
    turbulence      on;
    printCoeffs     on;
    Cmu             0.09;
    C1              1.44;
    C2              1.92;
    C3              0;
    sigmak          1;
    sigmaEps        1.3;
}

No MRF models present

No finite volume options present
Courant Number mean: 0.01335 max: 0.01335
--> FOAM Warning : 
    From function bool Foam::functionObjectList::read()
    in file db/functionObjects/functionObjectList/functionObjectList.C at line 871
    Caught FatalError 
--> FOAM FATAL ERROR: 
Unknown function type q1

Valid functions are : 

4
(
patchProbes
probes
sets
surfaces
)



    From function static Foam::autoPtr<Foam::functionObject> Foam::functionObject::New(const Foam::word&, const Foam::Time&, const Foam::dictionary&)
    in file db/functionObjects/functionObject/functionObject.C at line 101.

--> FOAM Warning : 
    From function bool Foam::functionObjectList::read()
    in file db/functionObjects/functionObjectList/functionObjectList.C at line 871
    Caught FatalError 
--> FOAM FATAL ERROR: 
Unknown function type q2

Valid functions are : 

4
(
patchProbes
probes
sets
surfaces
)



    From function static Foam::autoPtr<Foam::functionObject> Foam::functionObject::New(const Foam::word&, const Foam::Time&, const Foam::dictionary&)
    in file db/functionObjects/functionObject/functionObject.C at line 101.

--> FOAM Warning : 
    From function bool Foam::functionObjectList::read()
    in file db/functionObjects/functionObjectList/functionObjectList.C at line 871
    Caught FatalError 
--> FOAM FATAL ERROR: 
Unknown function type q3

Valid functions are : 

4
(
patchProbes
probes
sets
surfaces
)



    From function static Foam::autoPtr<Foam::functionObject> Foam::functionObject::New(const Foam::word&, const Foam::Time&, const Foam::dictionary&)
    in file db/functionObjects/functionObject/functionObject.C at line 101.

--> FOAM Warning : 
    From function bool Foam::functionObjectList::read()
    in file db/functionObjects/functionObjectList/functionObjectList.C at line 871
    Caught FatalError 
--> FOAM FATAL ERROR: 
Unknown function type q4

Valid functions are : 

4
(
patchProbes
probes
sets
surfaces
)



    From function static Foam::autoPtr<Foam::functionObject> Foam::functionObject::New(const Foam::word&, const Foam::Time&, const Foam::dictionary&)
    in file db/functionObjects/functionObject/functionObject.C at line 101.

--> FOAM Warning : 
    From function bool Foam::functionObjectList::read()
    in file db/functionObjects/functionObjectList/functionObjectList.C at line 871
    Caught FatalError 
--> FOAM FATAL ERROR: 
Unknown function type q5

Valid functions are : 

4
(
patchProbes
probes
sets
surfaces
)



    From function static Foam::autoPtr<Foam::functionObject> Foam::functionObject::New(const Foam::word&, const Foam::Time&, const Foam::dictionary&)
    in file db/functionObjects/functionObject/functionObject.C at line 101.

--> FOAM Warning : 
    From function bool Foam::functionObjectList::read()
    in file db/functionObjects/functionObjectList/functionObjectList.C at line 871
    Caught FatalError 
--> FOAM FATAL ERROR: 
Unknown function type q6

Valid functions are : 

4
(
patchProbes
probes
sets
surfaces
)



    From function static Foam::autoPtr<Foam::functionObject> Foam::functionObject::New(const Foam::word&, const Foam::Time&, const Foam::dictionary&)
    in file db/functionObjects/functionObject/functionObject.C at line 101.

--> FOAM Warning : 
    From function bool Foam::functionObjectList::read()
    in file db/functionObjects/functionObjectList/functionObjectList.C at line 871
    Caught FatalError 
--> FOAM FATAL ERROR: 
Unknown function type q7

Valid functions are : 

4
(
patchProbes
probes
sets
surfaces
)



    From function static Foam::autoPtr<Foam::functionObject> Foam::functionObject::New(const Foam::word&, const Foam::Time&, const Foam::dictionary&)
    in file db/functionObjects/functionObject/functionObject.C at line 101.

--> FOAM Warning : 
    From function bool Foam::functionObjectList::read()
    in file db/functionObjects/functionObjectList/functionObjectList.C at line 871
    Caught FatalError 
--> FOAM FATAL ERROR: 
Unknown function type q8

Valid functions are : 

4
(
patchProbes
probes
sets
surfaces
)



    From function static Foam::autoPtr<Foam::functionObject> Foam::functionObject::New(const Foam::word&, const Foam::Time&, const Foam::dictionary&)
    in file db/functionObjects/functionObject/functionObject.C at line 101.

--> FOAM Warning : 
    From function bool Foam::functionObjectList::read()
    in file db/functionObjects/functionObjectList/functionObjectList.C at line 871
    Caught FatalError 
--> FOAM FATAL ERROR: 
Unknown function type q9

Valid functions are : 

4
(
patchProbes
probes
sets
surfaces
)



    From function static Foam::autoPtr<Foam::functionObject> Foam::functionObject::New(const Foam::word&, const Foam::Time&, const Foam::dictionary&)
    in file db/functionObjects/functionObject/functionObject.C at line 101.

--> FOAM Warning : 
    From function bool Foam::functionObjectList::read()
    in file db/functionObjects/functionObjectList/functionObjectList.C at line 871
    Caught FatalError 
--> FOAM FATAL ERROR: 
Unknown function type q10

Valid functions are : 

4
(
patchProbes
probes
sets
surfaces
)



    From function static Foam::autoPtr<Foam::functionObject> Foam::functionObject::New(const Foam::word&, const Foam::Time&, const Foam::dictionary&)
    in file db/functionObjects/functionObject/functionObject.C at line 101.

--> FOAM Warning : 
    From function bool Foam::functionObjectList::read()
    in file db/functionObjects/functionObjectList/functionObjectList.C at line 871
    Caught FatalError 
--> FOAM FATAL ERROR: 
Unknown function type turbulenceFields

Valid functions are : 

4
(
patchProbes
probes
sets
surfaces
)



    From function static Foam::autoPtr<Foam::functionObject> Foam::functionObject::New(const Foam::word&, const Foam::Time&, const Foam::dictionary&)
    in file db/functionObjects/functionObject/functionObject.C at line 101.


Starting time loop

--> FOAM Warning : 
    From function bool Foam::functionObjectList::read()
    in file db/functionObjects/functionObjectList/functionObjectList.C at line 871
    Caught FatalError 
--> FOAM FATAL ERROR: 
Unknown function type q1

Valid functions are : 

4
(
patchProbes
probes
sets
surfaces
)

s
surfaces
)



    From function static Foam::autoPtr<Foam::functionObject> Foam::functionObject::New(const Foam::word&, const Foam::Time&, const Foam::dictionary&)
    in file db/functionObjects/functionObject/functionObject.C at line 101.

--> FOAM Warning : 
    From function bool Foam::functionObjectList::read()
    in file db/functionObjects/functionObjectList/functionObjectList.C at line 871
    Caught FatalError 
--> FOAM FATAL ERROR: 
Unknown function type q2

Valid functions are : 

4
(
patchProbes
probes
sets
surfaces
)

s
surfaces
)



    From function static Foam::autoPtr<Foam::functionObject> Foam::functionObject::New(const Foam::word&, const Foam::Time&, const Foam::dictionary&)
    in file db/functionObjects/functionObject/functionObject.C at line 101.

--> FOAM Warning : 
    From function bool Foam::functionObjectList::read()
    in file db/functionObjects/functionObjectList/functionObjectList.C at line 871
    Caught FatalError 
--> FOAM FATAL ERROR: 
Unknown function type q3

Valid functions are : 

4
(
patchProbes
probes
sets
surfaces
)

s
surfaces
)



    From function static Foam::autoPtr<Foam::functionObject> Foam::functionObject::New(const Foam::word&, const Foam::Time&, const Foam::dictionary&)
    in file db/functionObjects/functionObject/functionObject.C at line 101.

--> FOAM Warning : 
    From function bool Foam::functionObjectList::read()
    in file db/functionObjects/functionObjectList/functionObjectList.C at line 871
    Caught FatalError 
--> FOAM FATAL ERROR: 
Unknown function type q4

Valid functions are : 

4
(
patchProbes
probes
sets
surfaces
)

s
surfaces
)



    From function static Foam::autoPtr<Foam::functionObject> Foam::functionObject::New(const Foam::word&, const Foam::Time&, const Foam::dictionary&)
    in file db/functionObjects/functionObject/functionObject.C at line 101.

--> FOAM Warning : 
    From function bool Foam::functionObjectList::read()
    in file db/functionObjects/functionObjectList/functionObjectList.C at line 871
    Caught FatalError 
--> FOAM FATAL ERROR: 
Unknown function type q5

Valid functions are : 

4
(
patchProbes
probes
sets
surfaces
)

s
surfaces
)



    From function static Foam::autoPtr<Foam::functionObject> Foam::functionObject::New(const Foam::word&, const Foam::Time&, const Foam::dictionary&)
    in file db/functionObjects/functionObject/functionObject.C at line 101.

--> FOAM Warning : 
    From function bool Foam::functionObjectList::read()
    in file db/functionObjects/functionObjectList/functionObjectList.C at line 871
    Caught FatalError 
--> FOAM FATAL ERROR: 
Unknown function type q6

Valid functions are : 

4
(
patchProbes
probes
sets
surfaces
)

s
surfaces
)



    From function static Foam::autoPtr<Foam::functionObject> Foam::functionObject::New(const Foam::word&, const Foam::Time&, const Foam::dictionary&)
    in file db/functionObjects/functionObject/functionObject.C at line 101.

--> FOAM Warning : 
    From function bool Foam::functionObjectList::read()
    in file db/functionObjects/functionObjectList/functionObjectList.C at line 871
    Caught FatalError 
--> FOAM FATAL ERROR: 
Unknown function type q7

Valid functions are : 

4
(
patchProbes
probes
sets
surfaces
)

s
surfaces
)



    From function static Foam::autoPtr<Foam::functionObject> Foam::functionObject::New(const Foam::word&, const Foam::Time&, const Foam::dictionary&)
    in file db/functionObjects/functionObject/functionObject.C at line 101.

--> FOAM Warning : 
    From function bool Foam::functionObjectList::read()
    in file db/functionObjects/functionObjectList/functionObjectList.C at line 871
    Caught FatalError 
--> FOAM FATAL ERROR: 
Unknown function type q8

Valid functions are : 

4
(
patchProbes
probes
sets
surfaces
)

s
surfaces
)



    From function static Foam::autoPtr<Foam::functionObject> Foam::functionObject::New(const Foam::word&, const Foam::Time&, const Foam::dictionary&)
    in file db/functionObjects/functionObject/functionObject.C at line 101.

--> FOAM Warning : 
    From function bool Foam::functionObjectList::read()
    in file db/functionObjects/functionObjectList/functionObjectList.C at line 871
    Caught FatalError 
--> FOAM FATAL ERROR: 
Unknown function type q9

Valid functions are : 

4
(
patchProbes
probes
sets
surfaces
)

s
surfaces
)



    From function static Foam::autoPtr<Foam::functionObject> Foam::functionObject::New(const Foam::word&, const Foam::Time&, const Foam::dictionary&)
    in file db/functionObjects/functionObject/functionObject.C at line 101.

--> FOAM Warning : 
    From function bool Foam::functionObjectList::read()
    in file db/functionObjects/functionObjectList/functionObjectList.C at line 871
    Caught FatalError 
--> FOAM FATAL ERROR: 
Unknown function type q10

Valid functions are : 

4
(
patchProbes
probes
sets
surfaces
)


surfaces
)



    From function static Foam::autoPtr<Foam::functionObject> Foam::functionObject::New(const Foam::word&, const Foam::Time&, const Foam::dictionary&)
    in file db/functionObjects/functionObject/functionObject.C at line 101.

--> FOAM Warning : 
    From function bool Foam::functionObjectList::read()
    in file db/functionObjects/functionObjectList/functionObjectList.C at line 871
    Caught FatalError 
--> FOAM FATAL ERROR: 
Unknown function type turbulenceFields

Valid functions are : 

4
(
patchProbes
probes
sets
surfaces
)



    From function static Foam::autoPtr<Foam::functionObject> Foam::functionObject::New(const Foam::word&, const Foam::Time&, const Foam::dictionary&)
    in file db/functionObjects/functionObject/functionObject.C at line 101.

Courant Number mean: 0.01335 max: 0.01335
deltaT = 0.0119904
deltaT = 0.0119904
Time = 0.0119904

smoothSolver:  Solving for Ux, Initial residual = 1, Final residual = 3.10862e-06, No Iterations 2
smoothSolver:  Solving for Uy, Initial residual = 0.995352, Final residual = 3.56782e-06, No Iterations 2
GAMG:  Solving for p, Initial residual = 1, Final residual = 0.00204745, No Iterations 3
time step continuity errors : sum local = 6.27306e-16, global = 5.79651e-21, cumulative = 5.79651e-21
GAMG:  Solving for p, Initial residual = 0.980622, Final residual = 4.82535e-08, No Iterations 14
time step continuity errors : sum local = 1.17773e-18, global = 1.90774e-20, cumulative = 2.48739e-20
smoothSolver:  Solving for epsilon, Initial residual = 0.939513, Final residual = 8.41923e-07, No Iterations 2
smoothSolver:  Solving for k, Initial residual = 1, Final residual = 2.05686e-06, No Iterations 2
ExecutionTime = 0.142 s  ClockTime = 0 s

Courant Number mean: 0.0160039 max: 0.0160072
deltaT = 0.0143712
deltaT = 0.0143712
Time = 0.0263616

smoothSolver:  Solving for Ux, Initial residual = 0.192427, Final residual = 8.0295e-07, No Iterations 2
smoothSolver:  Solving for Uy, Initial residual = 0.997931, Final residual = 3.93648e-07, No Iterations 3
GAMG:  Solving for p, Initial residual = 0.999637, Final residual = 0.0069642, No Iterations 1
time step continuity errors : sum local = 6.88555e-14, global = 3.26853e-21, cumulative = 2.81424e-20
GAMG:  Solving for p, Initial residual = 0.036653, Final residual = 8.77758e-08, No Iterations 9
time step continuity errors : sum local = 2.44435e-18, global = -9.30124e-21, cumulative = 1.88412e-20
smoothSolver:  Solving for epsilon, Initial residual = 0.942871, Final residual = 1.28153e-06, No Iterations 2
smoothSolver:  Solving for k, Initial residual = 0.962896, Final residual = 1.82998e-06, No Iterations 2
ExecutionTime = 0.147 s  ClockTime = 0 s

Courant Number mean: 0.0191772 max: 0.0191856
deltaT = 0.0172256
deltaT = 0.0172256
Time = 0.0435873

smoothSolver:  Solving for Ux, Initial residual = 0.111726, Final residual = 6.73228e-07, No Iterations 2
smoothSolver:  Solving for Uy, Initial residual = 0.628161, Final residual = 3.7309e-07, No Iterations 3
GAMG:  Solving for p, Initial residual = 0.989643, Final residual = 0.00246108, No Iterations 2
time step continuity errors : sum local = 5.50886e-14, global = -1.07063e-20, cumulative = 8.13486e-21
GAMG:  Solving for p, Initial residual = 0.105325, Final residual = 8.29873e-08, No Iterations 10
time step continuity errors : sum local = 2.07097e-18, global = -9.0305e-21, cumulative = -8.95646e-22
smoothSolver:  Solving for epsilon, Initial residual = 0.957267, Final residual = 1.21902e-06, No Iterations 2
smoothSolver:  Solving for k, Initial residual = 0.944648, Final residual = 2.94381e-06, No Iterations 2
ExecutionTime = 0.154 s  ClockTime = 0 s

Courant Number mean: 0.0229804 max: 0.0229962
deltaT = 0.0206565
deltaT = 0.0206565
Time = 0.0642437

smoothSolver:  Solving for Ux, Initial residual = 0.080938, Final residual = 7.04308e-07, No Iterations 2
smoothSolver:  Solving for Uy, Initial residual = 0.719519, Final residual = 6.83947e-07, No Iterations 3
GAMG:  Solving for p, Initial residual = 0.613438, Final residual = 0.00328528, No Iterations 2
time step continuity errors : sum local = 8.82231e-14, global = -5.14236e-20, cumulative = -5.23192e-20
GAMG:  Solving for p, Initial residual = 0.104176, Final residual = 5.76546e-08, No Iterations 10
time step continuity errors : sum local = 2.80517e-18, global = -2.99859e-20, cumulative = -8.23051e-20
smoothSolver:  Solving for epsilon, Initial residual = 0.978029, Final residual = 1.67473e-06, No Iterations 2
smoothSolver:  Solving for k, Initial residual = 0.94481, Final residual = 3.71232e-06, No Iterations 2
ExecutionTime = 0.161 s  ClockTime = 0 s

Courant Number mean: 0.0275497 max: 0.0275764
deltaT = 0.0247774
deltaT = 0.0247774
Time = 0.0890212

smoothSolver:  Solving for Ux, Initial residual = 0.0646467, Final residual = 8.13381e-07, No Iterations 2
smoothSolver:  Solving for Uy, Initial residual = 0.781762, Final residual = 1.41432e-06, No Iterations 3
GAMG:  Solving for p, Initial residual = 0.948453, Final residual = 0.00219685, No Iterations 2
time step continuity errors : sum local = 1.57947e-13, global = -5.18505e-20, cumulative = -1.34156e-19
GAMG:  Solving for p, Initial residual = 0.0715222, Final residual = 8.2223e-08, No Iterations 10
time step continuity errors : sum local = 9.65098e-18, global = 1.13466e-20, cumulative = -1.22809e-19
smoothSolver:  Solving for epsilon, Initial residual = 0.995935, Final residual = 4.62795e-06, No Iterations 2
smoothSolver:  Solving for k, Initial residual = 0.96251, Final residual = 7.31556e-06, No Iterations 2
ExecutionTime = 0.167 s  ClockTime = 0 s

Courant Number mean: 0.0330358 max: 0.0330779
deltaT = 0.0296736
deltaT = 0.0296736
Time = 0.118695

smoothSolver:  Solving for Ux, Initial residual = 0.0543693, Final residual = 9.88623e-07, No Iterations 2
smoothSolver:  Solving for Uy, Initial residual = 0.740737, Final residual = 2.10471e-06, No Iterations 3
GAMG:  Solving for p, Initial residual = 0.970609, Final residual = 0.00244805, No Iterations 2
time step continuity errors : sum local = 3.77565e-13, global = -5.84464e-20, cumulative = -1.81255e-19
GAMG:  Solving for p, Initial residual = 0.110501, Final residual = 6.51993e-08, No Iterations 10
time step continuity errors : sum local = 1.06927e-17, global = 1.32943e-20, cumulative = -1.67961e-19
smoothSolver:  Solving for epsilon, Initial residual = 0.949391, Final residual = 5.31439e-06, No Iterations 2
smoothSolver:  Solving for k, Initial residual = 0.995773, Final residual = 1.71946e-07, No Iterations 3
ExecutionTime = 0.174 s  ClockTime = 0 s

Courant Number mean: 0.0395509 max: 0.0396142
deltaT = 0.0355443
deltaT = 0.0355443
Time = 0.154239

smoothSolver:  Solving for Ux, Initial residual = 0.0472013, Final residual = 1.25046e-06, No Iterations 2
smoothSolver:  Solving for Uy, Initial residual = 0.380776, Final residual = 1.4193e-06, No Iterations 3
GAMG:  Solving for p, Initial residual = 0.435594, Final residual = 0.00389391, No Iterations 2
time step continuity errors : sum local = 6.44986e-13, global = -7.08894e-20, cumulative = -2.3885e-19
GAMG:  Solving for p, Initial residual = 0.283392, Final residual = 4.95462e-08, No Iterations 12
time step continuity errors : sum local = 7.05367e-18, global = 5.51884e-20, cumulative = -1.83662e-19
smoothSolver:  Solving for epsilon, Initial residual = 0.919861, Final residual = 5.3175e-06, No Iterations 2
smoothSolver:  Solving for k, Initial residual = 0.966372, Final residual = 3.16759e-07, No Iterations 3
ExecutionTime = 0.182 s  ClockTime = 0 s

Courant Number mean: 0.0473589 max: 0.0474516
deltaT = 0.0426223
deltaT = 0.0426223
Time = 0.196861

smoothSolver:  Solving for Ux, Initial residual = 0.0420392, Final residual = 1.6455e-06, No Iterations 2
smoothSolver:  Solving for Uy, Initial residual = 0.244837, Final residual = 1.32505e-06, No Iterations 3
GAMG:  Solving for p, Initial residual = 0.657414, Final residual = 0.00131972, No Iterations 3
time step continuity errors : sum local = 2.25009e-13, global = -1.61113e-20, cumulative = -1.99773e-19
GAMG:  Solving for p, Initial residual = 0.592846, Final residual = 6.12861e-08, No Iterations 13
time step continuity errors : sum local = 8.58996e-18, global = 1.70688e-21, cumulative = -1.98066e-19
smoothSolver:  Solving for epsilon, Initial residual = 0.906232, Final residual = 2.23257e-07, No Iterations 3
smoothSolver:  Solving for k, Initial residual = 0.926844, Final residual = 5.4524e-07, No Iterations 3
ExecutionTime = 0.19 s  ClockTime = 0 s

Courant Number mean: 0.056768 max: 0.0569008
deltaT = 0.051058
deltaT = 0.051058
Time = 0.247919

smoothSolver:  Solving for Ux, Initial residual = 0.037916, Final residual = 2.22793e-06, No Iterations 2
smoothSolver:  Solving for Uy, Initial residual = 0.149411, Final residual = 1.00623e-06, No Iterations 3
GAMG:  Solving for p, Initial residual = 0.735353, Final residual = 0.00195494, No Iterations 3
time step continuity errors : sum local = 4.8541e-13, global = -2.93392e-20, cumulative = -2.27406e-19
GAMG:  Solving for p, Initial residual = 0.645139, Final residual = 6.40072e-08, No Iterations 13
time step continuity errors : sum local = 1.62179e-17, global = -2.57337e-20, cumulative = -2.53139e-19
smoothSolver:  Solving for epsilon, Initial residual = 0.906149, Final residual = 3.92833e-07, No Iterations 3
smoothSolver:  Solving for k, Initial residual = 0.886411, Final residual = 1.02452e-06, No Iterations 3
ExecutionTime = 0.197 s  ClockTime = 0 s

Courant Number mean: 0.0679756 max: 0.0681624
deltaT = 0.0609505
deltaT = 0.0609505
Time = 0.30887

smoothSolver:  Solving for Ux, Initial residual = 0.0346263, Final residual = 3.11579e-06, No Iterations 2
smoothSolver:  Solving for Uy, Initial residual = 0.123295, Final residual = 1.93148e-06, No Iterations 3
GAMG:  Solving for p, Initial residual = 0.741169, Final residual = 0.00225419, No Iterations 3
time step continuity errors : sum local = 1.01847e-12, global = 3.76733e-20, cumulative = -2.15466e-19
GAMG:  Solving for p, Initial residual = 0.726816, Final residual = 6.72885e-08, No Iterations 13
time step continuity errors : sum local = 3.05805e-17, global = -2.70622e-20, cumulative = -2.42528e-19
smoothSolver:  Solving for epsilon, Initial residual = 0.917082, Final residual = 7.4356e-07, No Iterations 3
smoothSolver:  Solving for k, Initial residual = 0.844492, Final residual = 1.75467e-06, No Iterations 3
ExecutionTime = 0.205 s  ClockTime = 0 s

Courant Number mean: 0.0811107 max: 0.0813689
deltaT = 0.0728656
deltaT = 0.0728656
Time = 0.381736

smoothSolver:  Solving for Ux, Initial residual = 0.0321447, Final residual = 4.61462e-06, No Iterations 2
smoothSolver:  Solving for Uy, Initial residual = 0.131212, Final residual = 3.47149e-06, No Iterations 3
GAMG:  Solving for p, Initial residual = 0.815506, Final residual = 0.0024371, No Iterations 3
time step continuity errors : sum local = 2.10542e-12, global = 5.27431e-20, cumulative = -1.89785e-19
GAMG:  Solving for p, Initial residual = 0.743277, Final residual = 6.17849e-08, No Iterations 13
time step continuity errors : sum local = 5.68555e-17, global = 1.30919e-19, cumulative = -5.88661e-20
smoothSolver:  Solving for epsilon, Initial residual = 0.936604, Final residual = 1.55995e-06, No Iterations 3
smoothSolver:  Solving for k, Initial residual = 0.804765, Final residual = 3.67154e-06, No Iterations 3
ExecutionTime = 0.212 s  ClockTime = 0 s

Courant Number mean: 0.0969221 max: 0.0972756
deltaT = 0.0874388
deltaT = 0.0874388
Time = 0.469174

smoothSolver:  Solving for Ux, Initial residual = 0.0303652, Final residual = 7.4948e-06, No Iterations 2
smoothSolver:  Solving for Uy, Initial residual = 0.121592, Final residual = 7.00031e-06, No Iterations 3
GAMG:  Solving for p, Initial residual = 0.833816, Final residual = 0.00253643, No Iterations 3
time step continuity errors : sum local = 4.39185e-12, global = -6.97799e-20, cumulative = -1.28646e-19
GAMG:  Solving for p, Initial residual = 0.77726, Final residual = 5.44877e-08, No Iterations 13
time step continuity errors : sum local = 1.0065e-16, global = -5.33752e-20, cumulative = -1.82021e-19
smoothSolver:  Solving for epsilon, Initial residual = 0.961845, Final residual = 2.71281e-06, No Iterations 3
smoothSolver:  Solving for k, Initial residual = 0.768236, Final residual = 6.40229e-06, No Iterations 3
ExecutionTime = 0.221 s  ClockTime = 0 s

Courant Number mean: 0.116249 max: 0.116731
deltaT = 0.104734
deltaT = 0.104734
Time = 0.573909

smoothSolver:  Solving for Ux, Initial residual = 0.0290042, Final residual = 5.48142e-07, No Iterations 3
smoothSolver:  Solving for Uy, Initial residual = 0.108753, Final residual = 9.78505e-06, No Iterations 3
GAMG:  Solving for p, Initial residual = 0.442107, Final residual = 0.000803301, No Iterations 3
time step continuity errors : sum local = 7.12195e-13, global = 4.77107e-20, cumulative = -1.3431e-19
GAMG:  Solving for p, Initial residual = 0.23194, Final residual = 9.42499e-08, No Iterations 11
time step continuity errors : sum local = 8.45618e-17, global = 7.82597e-20, cumulative = -5.60508e-20
smoothSolver:  Solving for epsilon, Initial residual = 0.989421, Final residual = 5.2171e-06, No Iterations 3
smoothSolver:  Solving for k, Initial residual = 0.734637, Final residual = 5.39302e-07, No Iterations 4
ExecutionTime = 0.227 s  ClockTime = 0 s

Courant Number mean: 0.139169 max: 0.13982
deltaT = 0.125681
deltaT = 0.125681
Time = 0.69959

smoothSolver:  Solving for Ux, Initial residual = 0.0281126, Final residual = 1.16045e-06, No Iterations 3
smoothSolver:  Solving for Uy, Initial residual = 0.089759, Final residual = 9.79689e-07, No Iterations 4
GAMG:  Solving for p, Initial residual = 0.404259, Final residual = 0.00109301, No Iterations 3
time step continuity errors : sum local = 1.52712e-12, global = 1.01033e-19, cumulative = 4.49827e-20
GAMG:  Solving for p, Initial residual = 0.373059, Final residual = 6.23085e-08, No Iterations 12
time step continuity errors : sum local = 8.60715e-17, global = -7.8103e-20, cumulative = -3.31204e-20
smoothSolver:  Solving for epsilon, Initial residual = 0.990479, Final residual = 9.37693e-06, No Iterations 3
smoothSolver:  Solving for k, Initial residual = 0.704405, Final residual = 1.2853e-06, No Iterations 4
ExecutionTime = 0.236 s  ClockTime = 0 s

Courant Number mean: 0.166908 max: 0.167784
deltaT = 0.150007
deltaT = 0.150007
Time = 0.849596

smoothSolver:  Solving for Ux, Initial residual = 0.0273147, Final residual = 2.55489e-06, No Iterations 3
smoothSolver:  Solving for Uy, Initial residual = 0.125362, Final residual = 2.76508e-06, No Iterations 4
GAMG:  Solving for p, Initial residual = 0.557429, Final residual = 0.00142432, No Iterations 3
time step continuity errors : sum local = 3.63438e-12, global = -1.28804e-19, cumulative = -1.61924e-19
GAMG:  Solving for p, Initial residual = 0.41842, Final residual = 5.77712e-08, No Iterations 12
time step continuity errors : sum local = 1.71246e-16, global = 3.16829e-19, cumulative = 1.54905e-19
smoothSolver:  Solving for epsilon, Initial residual = 0.977767, Final residual = 7.90471e-07, No Iterations 4
smoothSolver:  Solving for k, Initial residual = 0.676601, Final residual = 3.15869e-06, No Iterations 4
ExecutionTime = 0.244 s  ClockTime = 0 s

Courant Number mean: 0.19909 max: 0.200259
deltaT = 0.17942
deltaT = 0.17942
Time = 1.02902

smoothSolver:  Solving for Ux, Initial residual = 0.0269071, Final residual = 5.95947e-06, No Iterations 3
smoothSolver:  Solving for Uy, Initial residual = 0.0981915, Final residual = 4.47853e-06, No Iterations 4
GAMG:  Solving for p, Initial residual = 0.628148, Final residual = 0.0016249, No Iterations 3
time step continuity errors : sum local = 7.75881e-12, global = 1.64408e-19, cumulative = 3.19313e-19
GAMG:  Solving for p, Initial residual = 0.553553, Final residual = 4.38481e-08, No Iterations 12
time step continuity errors : sum local = 2.37195e-16, global = -2.64135e-20, cumulative = 2.929e-19
smoothSolver:  Solving for epsilon, Initial residual = 0.967793, Final residual = 2.00361e-06, No Iterations 4
smoothSolver:  Solving for k, Initial residual = 0.649805, Final residual = 8.67321e-06, No Iterations 4
ExecutionTime = 0.25 s  ClockTime = 0 s

Courant Number mean: 0.237968 max: 0.239525
deltaT = 0.208628
deltaT = 0.208628
Time = 1.23764

smoothSolver:  Solving for Ux, Initial residual = 0.0260125, Final residual = 1.09444e-06, No Iterations 4
smoothSolver:  Solving for Uy, Initial residual = 0.105345, Final residual = 9.33817e-06, No Iterations 4
GAMG:  Solving for p, Initial residual = 0.405524, Final residual = 0.00287351, No Iterations 2
time step continuity errors : sum local = 8.75545e-12, global = -7.18564e-20, cumulative = 2.21043e-19
GAMG:  Solving for p, Initial residual = 0.206682, Final residual = 6.03862e-08, No Iterations 10
time step continuity errors : sum local = 1.81261e-16, global = -1.79412e-19, cumulative = 4.16315e-20
smoothSolver:  Solving for epsilon, Initial residual = 0.961133, Final residual = 4.24631e-06, No Iterations 4
smoothSolver:  Solving for k, Initial residual = 0.620805, Final residual = 1.85282e-06, No Iterations 5
ExecutionTime = 0.258 s  ClockTime = 0 s

Courant Number mean: 0.276512 max: 0.278518
deltaT = 0.23682
deltaT = 0.23682
Time = 1.47446

smoothSolver:  Solving for Ux, Initial residual = 0.024962, Final residual = 2.39963e-06, No Iterations 4
smoothSolver:  Solving for Uy, Initial residual = 0.108792, Final residual = 1.85964e-06, No Iterations 5
GAMG:  Solving for p, Initial residual = 0.496075, Final residual = 0.00422031, No Iterations 2
time step continuity errors : sum local = 1.56972e-11, global = 3.70901e-19, cumulative = 4.12532e-19
GAMG:  Solving for p, Initial residual = 0.334123, Final residual = 8.38989e-08, No Iterations 8
time step continuity errors : sum local = 3.91556e-16, global = 2.21031e-19, cumulative = 6.33564e-19
smoothSolver:  Solving for epsilon, Initial residual = 0.95887, Final residual = 1.50014e-06, No Iterations 5
smoothSolver:  Solving for k, Initial residual = 0.59204, Final residual = 4.4532e-06, No Iterations 5
ExecutionTime = 0.265 s  ClockTime = 0 s

Courant Number mean: 0.313646 max: 0.316155
deltaT = 0.266423
deltaT = 0.266423
Time = 1.74089

smoothSolver:  Solving for Ux, Initial residual = 0.0241222, Final residual = 4.83974e-06, No Iterations 4
smoothSolver:  Solving for Uy, Initial residual = 0.114449, Final residual = 4.31453e-06, No Iterations 5
GAMG:  Solving for p, Initial residual = 0.584918, Final residual = 0.00532861, No Iterations 2
time step continuity errors : sum local = 2.90791e-11, global = -1.84367e-19, cumulative = 4.49197e-19
GAMG:  Solving for p, Initial residual = 0.48921, Final residual = 4.99356e-08, No Iterations 11
time step continuity errors : sum local = 2.95854e-16, global = 6.35154e-19, cumulative = 1.08435e-18
smoothSolver:  Solving for epsilon, Initial residual = 0.930624, Final residual = 1.32653e-06, No Iterations 5
smoothSolver:  Solving for k, Initial residual = 0.565583, Final residual = 1.98331e-06, No Iterations 6
ExecutionTime = 0.272 s  ClockTime = 0 s

Courant Number mean: 0.352581 max: 0.355675
deltaT = 0.294968
deltaT = 0.294968
Time = 2.03586

smoothSolver:  Solving for Ux, Initial residual = 0.0231934, Final residual = 8.57042e-06, No Iterations 4
smoothSolver:  Solving for Uy, Initial residual = 0.0977992, Final residual = 4.92053e-06, No Iterations 5
GAMG:  Solving for p, Initial residual = 0.650455, Final residual = 0.00595942, No Iterations 2
time step continuity errors : sum local = 4.9112e-11, global = -2.86819e-19, cumulative = 7.97532e-19
GAMG:  Solving for p, Initial residual = 0.570942, Final residual = 8.93254e-08, No Iterations 11
time step continuity errors : sum local = 7.85546e-16, global = 7.33222e-19, cumulative = 1.53075e-18
smoothSolver:  Solving for epsilon, Initial residual = 0.893857, Final residual = 3.11011e-06, No Iterations 5
smoothSolver:  Solving for k, Initial residual = 0.539937, Final residual = 3.5445e-06, No Iterations 6
ExecutionTime = 0.28 s  ClockTime = 0 s

Courant Number mean: 0.390047 max: 0.393783
deltaT = 0.294968
deltaT = 0.294968
Time = 2.33082

smoothSolver:  Solving for Ux, Initial residual = 0.0204395, Final residual = 8.29807e-06, No Iterations 4
smoothSolver:  Solving for Uy, Initial residual = 0.0864556, Final residual = 4.57025e-06, No Iterations 5
GAMG:  Solving for p, Initial residual = 0.607129, Final residual = 0.00558375, No Iterations 2
time step continuity errors : sum local = 4.43724e-11, global = -4.98044e-19, cumulative = 1.03271e-18
GAMG:  Solving for p, Initial residual = 0.566474, Final residual = 5.24024e-08, No Iterations 12
time step continuity errors : sum local = 4.34322e-16, global = 3.81624e-19, cumulative = 1.41433e-18
smoothSolver:  Solving for epsilon, Initial residual = 0.846277, Final residual = 5.12887e-06, No Iterations 5
smoothSolver:  Solving for k, Initial residual = 0.501924, Final residual = 4.8029e-06, No Iterations 6
ExecutionTime = 0.288 s  ClockTime = 0 s

Courant Number mean: 0.389757 max: 0.393783
deltaT = 0.294968
deltaT = 0.294968
Time = 2.62579

smoothSolver:  Solving for Ux, Initial residual = 0.0183463, Final residual = 7.84169e-06, No Iterations 4
smoothSolver:  Solving for Uy, Initial residual = 0.102988, Final residual = 5.69972e-06, No Iterations 5
GAMG:  Solving for p, Initial residual = 0.632802, Final residual = 0.00533939, No Iterations 2
time step continuity errors : sum local = 4.36982e-11, global = -8.0105e-22, cumulative = 1.41353e-18
GAMG:  Solving for p, Initial residual = 0.549821, Final residual = 5.53833e-08, No Iterations 12
time step continuity errors : sum local = 4.59852e-16, global = -7.37966e-19, cumulative = 6.75566e-19
smoothSolver:  Solving for epsilon, Initial residual = 0.796436, Final residual = 5.37673e-06, No Iterations 5
smoothSolver:  Solving for k, Initial residual = 0.468925, Final residual = 5.22813e-06, No Iterations 6
ExecutionTime = 0.295 s  ClockTime = 0 s

Courant Number mean: 0.389482 max: 0.393783
deltaT = 0.294968
deltaT = 0.294968
Time = 2.92076

smoothSolver:  Solving for Ux, Initial residual = 0.0167156, Final residual = 7.30824e-06, No Iterations 4
smoothSolver:  Solving for Uy, Initial residual = 0.0940395, Final residual = 4.96035e-06, No Iterations 5
GAMG:  Solving for p, Initial residual = 0.580288, Final residual = 0.00517096, No Iterations 2
time step continuity errors : sum local = 4.09525e-11, global = -2.84146e-19, cumulative = 3.9142e-19
GAMG:  Solving for p, Initial residual = 0.535256, Final residual = 6.03019e-08, No Iterations 12
time step continuity errors : sum local = 4.78541e-16, global = -7.74063e-21, cumulative = 3.83679e-19
smoothSolver:  Solving for epsilon, Initial residual = 0.749975, Final residual = 5.72818e-06, No Iterations 5
smoothSolver:  Solving for k, Initial residual = 0.432614, Final residual = 5.20178e-06, No Iterations 6
ExecutionTime = 0.302 s  ClockTime = 0 s

Courant Number mean: 0.389221 max: 0.393783
deltaT = 0.294968
deltaT = 0.294968
Time = 3.21573

smoothSolver:  Solving for Ux, Initial residual = 0.0154009, Final residual = 6.75863e-06, No Iterations 4
smoothSolver:  Solving for Uy, Initial residual = 0.0996381, Final residual = 5.01591e-06, No Iterations 5
GAMG:  Solving for p, Initial residual = 0.573633, Final residual = 0.00485769, No Iterations 2
time step continuity errors : sum local = 3.84096e-11, global = -3.82464e-19, cumulative = 1.21537e-21
GAMG:  Solving for p, Initial residual = 0.521171, Final residual = 6.10076e-08, No Iterations 12
time step continuity errors : sum local = 4.75667e-16, global = -1.81891e-19, cumulative = -1.80676e-19
smoothSolver:  Solving for epsilon, Initial residual = 0.705252, Final residual = 7.29855e-06, No Iterations 5
smoothSolver:  Solving for k, Initial residual = 0.377391, Final residual = 4.74739e-06, No Iterations 6
ExecutionTime = 0.31 s  ClockTime = 0 s

Courant Number mean: 0.388971 max: 0.393783
deltaT = 0.294968
deltaT = 0.294968
Time = 3.5107

smoothSolver:  Solving for Ux, Initial residual = 0.0142854, Final residual = 6.21389e-06, No Iterations 4
smoothSolver:  Solving for Uy, Initial residual = 0.104977, Final residual = 5.8074e-06, No Iterations 5
GAMG:  Solving for p, Initial residual = 0.56364, Final residual = 0.00476739, No Iterations 2
time step continuity errors : sum local = 3.70716e-11, global = 2.08597e-19, cumulative = 2.79219e-20
GAMG:  Solving for p, Initial residual = 0.510677, Final residual = 6.24746e-08, No Iterations 12
time step continuity errors : sum local = 4.77655e-16, global = -7.46417e-20, cumulative = -4.67198e-20
smoothSolver:  Solving for epsilon, Initial residual = 0.663379, Final residual = 7.42844e-06, No Iterations 5
smoothSolver:  Solving for k, Initial residual = 0.331911, Final residual = 4.16532e-06, No Iterations 6
ExecutionTime = 0.317 s  ClockTime = 0 s

Courant Number mean: 0.388732 max: 0.393783
deltaT = 0.294968
deltaT = 0.294968
Time = 3.80567

smoothSolver:  Solving for Ux, Initial residual = 0.0133365, Final residual = 5.70205e-06, No Iterations 4
smoothSolver:  Solving for Uy, Initial residual = 0.105563, Final residual = 5.70427e-06, No Iterations 5
GAMG:  Solving for p, Initial residual = 0.551038, Final residual = 0.00451157, No Iterations 2
time step continuity errors : sum local = 3.49435e-11, global = -4.54454e-19, cumulative = -5.01174e-19
GAMG:  Solving for p, Initial residual = 0.501926, Final residual = 6.31979e-08, No Iterations 12
time step continuity errors : sum local = 4.69719e-16, global = 1.89919e-19, cumulative = -3.11255e-19
smoothSolver:  Solving for epsilon, Initial residual = 0.62521, Final residual = 7.66242e-06, No Iterations 5
smoothSolver:  Solving for k, Initial residual = 0.295565, Final residual = 3.83299e-06, No Iterations 6
ExecutionTime = 0.325 s  ClockTime = 0 s

Courant Number mean: 0.388501 max: 0.393783
deltaT = 0.294968
deltaT = 0.294968
Time = 4.10063

smoothSolver:  Solving for Ux, Initial residual = 0.0125085, Final residual = 5.22147e-06, No Iterations 4
smoothSolver:  Solving for Uy, Initial residual = 0.104866, Final residual = 6.15578e-06, No Iterations 5
GAMG:  Solving for p, Initial residual = 0.538131, Final residual = 0.00438478, No Iterations 2
time step continuity errors : sum local = 3.34166e-11, global = -1.71407e-19, cumulative = -4.82662e-19
GAMG:  Solving for p, Initial residual = 0.49312, Final residual = 6.31936e-08, No Iterations 12
time step continuity errors : sum local = 4.58538e-16, global = -4.34008e-19, cumulative = -9.16669e-19
smoothSolver:  Solving for epsilon, Initial residual = 0.59185, Final residual = 7.86501e-06, No Iterations 5
smoothSolver:  Solving for k, Initial residual = 0.266055, Final residual = 3.42137e-06, No Iterations 6
ExecutionTime = 0.332 s  ClockTime = 0 s

Courant Number mean: 0.388278 max: 0.393783
deltaT = 0.294968
deltaT = 0.294968
Time = 4.3956

smoothSolver:  Solving for Ux, Initial residual = 0.0117944, Final residual = 4.78374e-06, No Iterations 4
smoothSolver:  Solving for Uy, Initial residual = 0.105515, Final residual = 5.95485e-06, No Iterations 5
GAMG:  Solving for p, Initial residual = 0.535119, Final residual = 0.00417488, No Iterations 2
time step continuity errors : sum local = 3.16056e-11, global = -9.01539e-19, cumulative = -1.81821e-18
GAMG:  Solving for p, Initial residual = 0.487772, Final residual = 6.34174e-08, No Iterations 12
time step continuity errors : sum local = 4.48418e-16, global = 2.39701e-19, cumulative = -1.57851e-18
smoothSolver:  Solving for epsilon, Initial residual = 0.557993, Final residual = 6.4544e-06, No Iterations 5
smoothSolver:  Solving for k, Initial residual = 0.241672, Final residual = 2.99777e-06, No Iterations 6
ExecutionTime = 0.34 s  ClockTime = 0 s

Courant Number mean: 0.388063 max: 0.393783
deltaT = 0.294968
deltaT = 0.294968
Time = 4.69057

smoothSolver:  Solving for Ux, Initial residual = 0.0111717, Final residual = 4.3885e-06, No Iterations 4
smoothSolver:  Solving for Uy, Initial residual = 0.101884, Final residual = 5.51812e-06, No Iterations 5
GAMG:  Solving for p, Initial residual = 0.525854, Final residual = 0.0039065, No Iterations 2
time step continuity errors : sum local = 2.90848e-11, global = -1.73668e-19, cumulative = -1.75218e-18
GAMG:  Solving for p, Initial residual = 0.481831, Final residual = 6.29475e-08, No Iterations 12
time step continuity errors : sum local = 4.31129e-16, global = 9.60335e-20, cumulative = -1.65614e-18
smoothSolver:  Solving for epsilon, Initial residual = 0.526601, Final residual = 6.87603e-06, No Iterations 5
smoothSolver:  Solving for k, Initial residual = 0.221222, Final residual = 2.59084e-06, No Iterations 6
ExecutionTime = 0.347 s  ClockTime = 0 s

Courant Number mean: 0.387854 max: 0.393783
deltaT = 0.294968
deltaT = 0.294968
Time = 4.98554

smoothSolver:  Solving for Ux, Initial residual = 0.0106237, Final residual = 4.03188e-06, No Iterations 4
smoothSolver:  Solving for Uy, Initial residual = 0.103036, Final residual = 5.3804e-06, No Iterations 5
GAMG:  Solving for p, Initial residual = 0.526742, Final residual = 0.00378017, No Iterations 2
time step continuity errors : sum local = 2.7524e-11, global = -5.34481e-19, cumulative = -2.19062e-18
GAMG:  Solving for p, Initial residual = 0.479951, Final residual = 6.39403e-08, No Iterations 12
time step continuity errors : sum local = 4.24484e-16, global = 7.60554e-19, cumulative = -1.43007e-18
smoothSolver:  Solving for epsilon, Initial residual = 0.499036, Final residual = 6.37088e-06, No Iterations 5
smoothSolver:  Solving for k, Initial residual = 0.20385, Final residual = 2.44182e-06, No Iterations 6
ExecutionTime = 0.357 s  ClockTime = 0 s

Courant Number mean: 0.387651 max: 0.393782
deltaT = 0.294968
deltaT = 0.294968
Time = 5.28051

smoothSolver:  Solving for Ux, Initial residual = 0.0101373, Final residual = 3.7106e-06, No Iterations 4
smoothSolver:  Solving for Uy, Initial residual = 0.0980213, Final residual = 4.89742e-06, No Iterations 5
GAMG:  Solving for p, Initial residual = 0.523509, Final residual = 0.00356099, No Iterations 2
time step continuity errors : sum local = 2.54675e-11, global = 8.35539e-19, cumulative = -5.94531e-19
GAMG:  Solving for p, Initial residual = 0.473551, Final residual = 6.50924e-08, No Iterations 12
time step continuity errors : sum local = 4.18847e-16, global = -3.00279e-19, cumulative = -8.9481e-19
smoothSolver:  Solving for epsilon, Initial residual = 0.474227, Final residual = 5.81659e-06, No Iterations 5
smoothSolver:  Solving for k, Initial residual = 0.188891, Final residual = 2.29698e-06, No Iterations 6
ExecutionTime = 0.365 s  ClockTime = 0 s

Courant Number mean: 0.387453 max: 0.393782
deltaT = 0.294968
deltaT = 0.294968
Time = 5.57548

smoothSolver:  Solving for Ux, Initial residual = 0.00970244, Final residual = 3.42102e-06, No Iterations 4
smoothSolver:  Solving for Uy, Initial residual = 0.0978677, Final residual = 4.74768e-06, No Iterations 5
GAMG:  Solving for p, Initial residual = 0.522088, Final residual = 0.00331549, No Iterations 2
time step continuity errors : sum local = 2.34493e-11, global = -8.65469e-19, cumulative = -1.76028e-18
GAMG:  Solving for p, Initial residual = 0.469429, Final residual = 6.58327e-08, No Iterations 12
time step continuity errors : sum local = 4.10351e-16, global = -1.93676e-19, cumulative = -1.95395e-18
smoothSolver:  Solving for epsilon, Initial residual = 0.449396, Final residual = 4.99635e-06, No Iterations 5
smoothSolver:  Solving for k, Initial residual = 0.175647, Final residual = 2.17727e-06, No Iterations 6
ExecutionTime = 0.373 s  ClockTime = 0 s

Courant Number mean: 0.38726 max: 0.393782
deltaT = 0.294968
deltaT = 0.294968
Time = 5.87044

smoothSolver:  Solving for Ux, Initial residual = 0.00931118, Final residual = 3.16075e-06, No Iterations 4
smoothSolver:  Solving for Uy, Initial residual = 0.0918258, Final residual = 4.22183e-06, No Iterations 5
GAMG:  Solving for p, Initial residual = 0.519829, Final residual = 0.00320164, No Iterations 2
time step continuity errors : sum local = 2.19187e-11, global = 6.60525e-19, cumulative = -1.29343e-18
GAMG:  Solving for p, Initial residual = 0.470197, Final residual = 6.79478e-08, No Iterations 12
time step continuity errors : sum local = 4.06037e-16, global = 9.78151e-20, cumulative = -1.19561e-18
smoothSolver:  Solving for epsilon, Initial residual = 0.427384, Final residual = 4.90877e-06, No Iterations 5
smoothSolver:  Solving for k, Initial residual = 0.164086, Final residual = 1.82754e-06, No Iterations 6
ExecutionTime = 0.381 s  ClockTime = 0 s

Courant Number mean: 0.387072 max: 0.393782
deltaT = 0.294968
deltaT = 0.294968
Time = 6.16541

smoothSolver:  Solving for Ux, Initial residual = 0.00895709, Final residual = 2.92556e-06, No Iterations 4
smoothSolver:  Solving for Uy, Initial residual = 0.088776, Final residual = 4.04052e-06, No Iterations 5
GAMG:  Solving for p, Initial residual = 0.518935, Final residual = 0.00312861, No Iterations 2
time step continuity errors : sum local = 2.07067e-11, global = -1.50316e-18, cumulative = -2.69878e-18
GAMG:  Solving for p, Initial residual = 0.470296, Final residual = 6.80935e-08, No Iterations 12
time step continuity errors : sum local = 3.93015e-16, global = 4.45743e-19, cumulative = -2.25303e-18
smoothSolver:  Solving for epsilon, Initial residual = 0.40536, Final residual = 4.95003e-06, No Iterations 5
smoothSolver:  Solving for k, Initial residual = 0.153915, Final residual = 1.62499e-06, No Iterations 6
ExecutionTime = 0.389 s  ClockTime = 0 s

Courant Number mean: 0.386888 max: 0.393781
deltaT = 0.294968
deltaT = 0.294968
Time = 6.46038

smoothSolver:  Solving for Ux, Initial residual = 0.00863313, Final residual = 2.71216e-06, No Iterations 4
smoothSolver:  Solving for Uy, Initial residual = 0.0879617, Final residual = 3.84018e-06, No Iterations 5
GAMG:  Solving for p, Initial residual = 0.523528, Final residual = 0.00309849, No Iterations 2
time step continuity errors : sum local = 1.98675e-11, global = -6.41139e-19, cumulative = -2.89417e-18
GAMG:  Solving for p, Initial residual = 0.472142, Final residual = 6.8936e-08, No Iterations 12
time step continuity errors : sum local = 3.83536e-16, global = -3.88644e-19, cumulative = -3.28282e-18
smoothSolver:  Solving for epsilon, Initial residual = 0.385515, Final residual = 4.48646e-06, No Iterations 5
smoothSolver:  Solving for k, Initial residual = 0.144903, Final residual = 8.81149e-06, No Iterations 5
ExecutionTime = 0.397 s  ClockTime = 0 s

Courant Number mean: 0.386709 max: 0.393781
deltaT = 0.294968
deltaT = 0.294968
Time = 6.75535

smoothSolver:  Solving for Ux, Initial residual = 0.00833268, Final residual = 2.51798e-06, No Iterations 4
smoothSolver:  Solving for Uy, Initial residual = 0.0917809, Final residual = 3.77916e-06, No Iterations 5
GAMG:  Solving for p, Initial residual = 0.549327, Final residual = 0.00278216, No Iterations 2
time step continuity errors : sum local = 1.81801e-11, global = -1.42246e-19, cumulative = -3.42506e-18
GAMG:  Solving for p, Initial residual = 0.443948, Final residual = 6.39658e-08, No Iterations 12
time step continuity errors : sum local = 3.75675e-16, global = -9.79323e-19, cumulative = -4.40439e-18
smoothSolver:  Solving for epsilon, Initial residual = 0.366596, Final residual = 3.67224e-06, No Iterations 5
smoothSolver:  Solving for k, Initial residual = 0.13687, Final residual = 1.95078e-06, No Iterations 6
ExecutionTime = 0.407 s  ClockTime = 0 s

Courant Number mean: 0.386533 max: 0.39378
deltaT = 0.294968
deltaT = 0.294968
Time = 7.05032

smoothSolver:  Solving for Ux, Initial residual = 0.00805622, Final residual = 2.34196e-06, No Iterations 4
smoothSolver:  Solving for Uy, Initial residual = 0.0862135, Final residual = 3.28763e-06, No Iterations 5
GAMG:  Solving for p, Initial residual = 0.512459, Final residual = 0.00275115, No Iterations 2
time step continuity errors : sum local = 1.74228e-11, global = 1.67502e-19, cumulative = -4.23688e-18
GAMG:  Solving for p, Initial residual = 0.45401, Final residual = 6.77337e-08, No Iterations 12
time step continuity errors : sum local = 3.6476e-16, global = 1.62079e-19, cumulative = -4.0748e-18
smoothSolver:  Solving for epsilon, Initial residual = 0.348732, Final residual = 3.3631e-06, No Iterations 5
smoothSolver:  Solving for k, Initial residual = 0.129666, Final residual = 9.08788e-06, No Iterations 5
ExecutionTime = 0.415 s  ClockTime = 0 s

Courant Number mean: 0.38636 max: 0.393779
deltaT = 0.294968
deltaT = 0.294968
Time = 7.34529

smoothSolver:  Solving for Ux, Initial residual = 0.0077973, Final residual = 2.18064e-06, No Iterations 4
smoothSolver:  Solving for Uy, Initial residual = 0.0934793, Final residual = 3.71938e-06, No Iterations 5
GAMG:  Solving for p, Initial residual = 0.550964, Final residual = 0.00276124, No Iterations 2
time step continuity errors : sum local = 1.7255e-11, global = 3.53876e-19, cumulative = -3.72093e-18
GAMG:  Solving for p, Initial residual = 0.436076, Final residual = 6.01681e-08, No Iterations 12
time step continuity errors : sum local = 3.38865e-16, global = -5.37449e-19, cumulative = -4.25838e-18
smoothSolver:  Solving for epsilon, Initial residual = 0.331252, Final residual = 3.31418e-06, No Iterations 5
smoothSolver:  Solving for k, Initial residual = 0.123174, Final residual = 1.75617e-06, No Iterations 6
ExecutionTime = 0.423 s  ClockTime = 0 s

Courant Number mean: 0.386191 max: 0.393777
deltaT = 0.294968
deltaT = 0.294968
Time = 7.64025

smoothSolver:  Solving for Ux, Initial residual = 0.0075584, Final residual = 2.03407e-06, No Iterations 4
smoothSolver:  Solving for Uy, Initial residual = 0.0869211, Final residual = 3.20068e-06, No Iterations 5
GAMG:  Solving for p, Initial residual = 0.501637, Final residual = 0.00261932, No Iterations 2
time step continuity errors : sum local = 1.58313e-11, global = -4.67182e-19, cumulative = -4.72556e-18
GAMG:  Solving for p, Initial residual = 0.451278, Final residual = 6.73519e-08, No Iterations 12
time step continuity errors : sum local = 3.42349e-16, global = 4.90921e-19, cumulative = -4.23464e-18
smoothSolver:  Solving for epsilon, Initial residual = 0.317523, Final residual = 3.51222e-06, No Iterations 5
smoothSolver:  Solving for k, Initial residual = 0.117296, Final residual = 7.67105e-06, No Iterations 5
ExecutionTime = 0.431 s  ClockTime = 0 s

Courant Number mean: 0.386025 max: 0.393776
deltaT = 0.294968
deltaT = 0.294968
Time = 7.93522

smoothSolver:  Solving for Ux, Initial residual = 0.00733723, Final residual = 1.90106e-06, No Iterations 4
smoothSolver:  Solving for Uy, Initial residual = 0.0916122, Final residual = 3.3309e-06, No Iterations 5
GAMG:  Solving for p, Initial residual = 0.538501, Final residual = 0.00262317, No Iterations 2
time step continuity errors : sum local = 1.54027e-11, global = 7.34369e-19, cumulative = -3.50027e-18
GAMG:  Solving for p, Initial residual = 0.4325, Final residual = 6.01817e-08, No Iterations 12
time step continuity errors : sum local = 3.15497e-16, global = -5.66638e-19, cumulative = -4.06691e-18
smoothSolver:  Solving for epsilon, Initial residual = 0.302388, Final residual = 3.07339e-06, No Iterations 5
smoothSolver:  Solving for k, Initial residual = 0.111949, Final residual = 8.40512e-06, No Iterations 5
ExecutionTime = 0.439 s  ClockTime = 0 s

Courant Number mean: 0.385861 max: 0.393774
deltaT = 0.294968
deltaT = 0.294968
Time = 8.23019

smoothSolver:  Solving for Ux, Initial residual = 0.00713183, Final residual = 1.78e-06, No Iterations 4
smoothSolver:  Solving for Uy, Initial residual = 0.0935448, Final residual = 3.1845e-06, No Iterations 5
GAMG:  Solving for p, Initial residual = 0.513356, Final residual = 0.00238427, No Iterations 2
time step continuity errors : sum local = 1.41432e-11, global = -3.29021e-19, cumulative = -4.39593e-18
GAMG:  Solving for p, Initial residual = 0.427858, Final residual = 5.89225e-08, No Iterations 12
time step continuity errors : sum local = 3.0451e-16, global = -5.12559e-19, cumulative = -4.90849e-18
smoothSolver:  Solving for epsilon, Initial residual = 0.288861, Final residual = 2.70392e-06, No Iterations 5
smoothSolver:  Solving for k, Initial residual = 0.107067, Final residual = 7.72958e-06, No Iterations 5
ExecutionTime = 0.447 s  ClockTime = 1 s

Courant Number mean: 0.385701 max: 0.393771
deltaT = 0.294968
deltaT = 0.294968
Time = 8.52516

smoothSolver:  Solving for Ux, Initial residual = 0.00694053, Final residual = 1.66984e-06, No Iterations 4
smoothSolver:  Solving for Uy, Initial residual = 0.0958116, Final residual = 3.04275e-06, No Iterations 5
GAMG:  Solving for p, Initial residual = 0.504482, Final residual = 0.00230077, No Iterations 2
time step continuity errors : sum local = 1.34163e-11, global = -5.14481e-20, cumulative = -4.95994e-18
GAMG:  Solving for p, Initial residual = 0.41935, Final residual = 5.91061e-08, No Iterations 12
time step continuity errors : sum local = 3.0259e-16, global = -1.1545e-19, cumulative = -5.07539e-18
smoothSolver:  Solving for epsilon, Initial residual = 0.276635, Final residual = 2.31958e-06, No Iterations 5
smoothSolver:  Solving for k, Initial residual = 0.102594, Final residual = 7.32338e-06, No Iterations 5
ExecutionTime = 0.454 s  ClockTime = 1 s

Courant Number mean: 0.385543 max: 0.393769
deltaT = 0.294968
deltaT = 0.294968
Time = 8.82013

smoothSolver:  Solving for Ux, Initial residual = 0.00676187, Final residual = 1.56919e-06, No Iterations 4
smoothSolver:  Solving for Uy, Initial residual = 0.0965923, Final residual = 2.91434e-06, No Iterations 5
GAMG:  Solving for p, Initial residual = 0.490237, Final residual = 0.00228561, No Iterations 2
time step continuity errors : sum local = 1.3317e-11, global = 4.12957e-19, cumulative = -4.66243e-18
GAMG:  Solving for p, Initial residual = 0.413071, Final residual = 5.99076e-08, No Iterations 12
time step continuity errors : sum local = 3.0153e-16, global = 2.92822e-19, cumulative = -4.36961e-18
smoothSolver:  Solving for epsilon, Initial residual = 0.26659, Final residual = 2.01865e-06, No Iterations 5
smoothSolver:  Solving for k, Initial residual = 0.0984566, Final residual = 6.80862e-06, No Iterations 5
ExecutionTime = 0.464 s  ClockTime = 1 s

Courant Number mean: 0.385388 max: 0.393765
deltaT = 0.294968
deltaT = 0.294968
Time = 9.1151

smoothSolver:  Solving for Ux, Initial residual = 0.00659461, Final residual = 1.47663e-06, No Iterations 4
smoothSolver:  Solving for Uy, Initial residual = 0.0954324, Final residual = 2.75856e-06, No Iterations 5
GAMG:  Solving for p, Initial residual = 0.481979, Final residual = 0.00229311, No Iterations 2
time step continuity errors : sum local = 1.3266e-11, global = -2.76697e-19, cumulative = -4.6463e-18
GAMG:  Solving for p, Initial residual = 0.403519, Final residual = 5.861e-08, No Iterations 12
time step continuity errors : sum local = 2.94137e-16, global = 9.24385e-19, cumulative = -3.72192e-18
smoothSolver:  Solving for epsilon, Initial residual = 0.254064, Final residual = 1.81952e-06, No Iterations 5
smoothSolver:  Solving for k, Initial residual = 0.0945909, Final residual = 6.49674e-06, No Iterations 5
ExecutionTime = 0.473 s  ClockTime = 1 s

Courant Number mean: 0.385235 max: 0.393761
deltaT = 0.294968
deltaT = 0.294968
Time = 9.41006

smoothSolver:  Solving for Ux, Initial residual = 0.00643765, Final residual = 1.39162e-06, No Iterations 4
smoothSolver:  Solving for Uy, Initial residual = 0.0959535, Final residual = 2.53751e-06, No Iterations 5
GAMG:  Solving for p, Initial residual = 0.482016, Final residual = 0.00221253, No Iterations 2
time step continuity errors : sum local = 1.28985e-11, global = 5.24196e-19, cumulative = -3.19772e-18
GAMG:  Solving for p, Initial residual = 0.393595, Final residual = 5.56274e-08, No Iterations 12
time step continuity errors : sum local = 2.85646e-16, global = -3.19212e-19, cumulative = -3.51694e-18
smoothSolver:  Solving for epsilon, Initial residual = 0.244877, Final residual = 1.83871e-06, No Iterations 5
smoothSolver:  Solving for k, Initial residual = 0.0910185, Final residual = 5.62729e-06, No Iterations 5
ExecutionTime = 0.481 s  ClockTime = 1 s

Courant Number mean: 0.385084 max: 0.393757
deltaT = 0.294968
deltaT = 0.294968
Time = 9.70503

smoothSolver:  Solving for Ux, Initial residual = 0.00629004, Final residual = 1.31307e-06, No Iterations 4
smoothSolver:  Solving for Uy, Initial residual = 0.0959476, Final residual = 2.42899e-06, No Iterations 5
GAMG:  Solving for p, Initial residual = 0.464658, Final residual = 0.00212613, No Iterations 2
time step continuity errors : sum local = 1.2501e-11, global = 1.92417e-19, cumulative = -3.32452e-18
GAMG:  Solving for p, Initial residual = 0.381955, Final residual = 5.3866e-08, No Iterations 12
time step continuity errors : sum local = 2.78573e-16, global = -2.41286e-19, cumulative = -3.5658e-18
smoothSolver:  Solving for epsilon, Initial residual = 0.235189, Final residual = 1.77303e-06, No Iterations 5
smoothSolver:  Solving for k, Initial residual = 0.087708, Final residual = 4.95634e-06, No Iterations 5
ExecutionTime = 0.492 s  ClockTime = 1 s

Courant Number mean: 0.384935 max: 0.393752
deltaT = 0.294968
deltaT = 0.294968
Time = 10

smoothSolver:  Solving for Ux, Initial residual = 0.00615094, Final residual = 9.89272e-06, No Iterations 3
smoothSolver:  Solving for Uy, Initial residual = 0.0943079, Final residual = 2.33386e-06, No Iterations 5
GAMG:  Solving for p, Initial residual = 0.881563, Final residual = 0.00505286, No Iterations 2
time step continuity errors : sum local = 1.01752e-10, global = 2.66349e-19, cumulative = -3.29946e-18
GAMG:  Solving for p, Initial residual = 0.627306, Final residual = 5.16256e-08, No Iterations 13
time step continuity errors : sum local = 1.04564e-15, global = -3.74325e-19, cumulative = -3.67378e-18
smoothSolver:  Solving for epsilon, Initial residual = 0.226716, Final residual = 1.6128e-06, No Iterations 5
smoothSolver:  Solving for k, Initial residual = 0.0846321, Final residual = 4.57522e-06, No Iterations 5
ExecutionTime = 0.54 s  ClockTime = 1 s

Courant Number mean: 0.384788 max: 0.393746
deltaT = 0.294118
deltaT = 0.294118
Time = 10.2941

smoothSolver:  Solving for Ux, Initial residual = 0.00600249, Final residual = 9.29757e-06, No Iterations 3
smoothSolver:  Solving for Uy, Initial residual = 0.111787, Final residual = 4.05804e-06, No Iterations 5
GAMG:  Solving for p, Initial residual = 0.643593, Final residual = 0.0041013, No Iterations 2
time step continuity errors : sum local = 8.82413e-11, global = -1.01845e-18, cumulative = -4.69223e-18
GAMG:  Solving for p, Initial residual = 0.601647, Final residual = 4.89425e-08, No Iterations 13
time step continuity errors : sum local = 9.40428e-16, global = -3.76939e-19, cumulative = -5.06917e-18
smoothSolver:  Solving for epsilon, Initial residual = 0.217366, Final residual = 1.34043e-06, No Iterations 5
smoothSolver:  Solving for k, Initial residual = 0.0815499, Final residual = 4.21554e-06, No Iterations 5
ExecutionTime = 0.549 s  ClockTime = 1 s

Courant Number mean: 0.383535 max: 0.392604
deltaT = 0.294118
deltaT = 0.294118
Time = 10.5882

smoothSolver:  Solving for Ux, Initial residual = 0.00587895, Final residual = 8.86852e-06, No Iterations 3
smoothSolver:  Solving for Uy, Initial residual = 0.113831, Final residual = 4.41991e-06, No Iterations 5
GAMG:  Solving for p, Initial residual = 0.636928, Final residual = 0.00399374, No Iterations 2
time step continuity errors : sum local = 8.60684e-11, global = 3.67363e-19, cumulative = -4.70181e-18
GAMG:  Solving for p, Initial residual = 0.594794, Final residual = 4.97856e-08, No Iterations 13
time step continuity errors : sum local = 9.50199e-16, global = 2.04712e-19, cumulative = -4.49709e-18
smoothSolver:  Solving for epsilon, Initial residual = 0.209256, Final residual = 1.02557e-06, No Iterations 5
smoothSolver:  Solving for k, Initial residual = 0.0788874, Final residual = 3.76139e-06, No Iterations 5
ExecutionTime = 0.557 s  ClockTime = 1 s

Courant Number mean: 0.383393 max: 0.392597
deltaT = 0.294118
deltaT = 0.294118
Time = 10.8824

smoothSolver:  Solving for Ux, Initial residual = 0.0057619, Final residual = 8.46951e-06, No Iterations 3
smoothSolver:  Solving for Uy, Initial residual = 0.118046, Final residual = 4.6098e-06, No Iterations 5
GAMG:  Solving for p, Initial residual = 0.629703, Final residual = 0.00398423, No Iterations 2
time step continuity errors : sum local = 8.53058e-11, global = 6.47445e-19, cumulative = -3.84965e-18
GAMG:  Solving for p, Initial residual = 0.591578, Final residual = 4.95719e-08, No Iterations 13
time step continuity errors : sum local = 9.35659e-16, global = -7.67322e-19, cumulative = -4.61697e-18
smoothSolver:  Solving for epsilon, Initial residual = 0.200555, Final residual = 9.38635e-06, No Iterations 4
smoothSolver:  Solving for k, Initial residual = 0.0763746, Final residual = 3.55417e-06, No Iterations 5
ExecutionTime = 0.564 s  ClockTime = 1 s

Courant Number mean: 0.383253 max: 0.39259
deltaT = 0.294118
deltaT = 0.294118
Time = 11.1765

smoothSolver:  Solving for Ux, Initial residual = 0.0056508, Final residual = 8.09782e-06, No Iterations 3
smoothSolver:  Solving for Uy, Initial residual = 0.121494, Final residual = 4.74616e-06, No Iterations 5
GAMG:  Solving for p, Initial residual = 0.62496, Final residual = 0.0040833, No Iterations 2
time step continuity errors : sum local = 8.61566e-11, global = 1.32669e-19, cumulative = -4.4843e-18
GAMG:  Solving for p, Initial residual = 0.583689, Final residual = 4.9536e-08, No Iterations 13
time step continuity errors : sum local = 9.2804e-16, global = -3.73937e-20, cumulative = -4.5217e-18
smoothSolver:  Solving for epsilon, Initial residual = 0.192452, Final residual = 1.82074e-06, No Iterations 5
smoothSolver:  Solving for k, Initial residual = 0.0740194, Final residual = 3.29324e-06, No Iterations 5
ExecutionTime = 0.572 s  ClockTime = 1 s

Courant Number mean: 0.383114 max: 0.392581
deltaT = 0.294118
deltaT = 0.294118
Time = 11.4706

smoothSolver:  Solving for Ux, Initial residual = 0.00554519, Final residual = 7.7505e-06, No Iterations 3
smoothSolver:  Solving for Uy, Initial residual = 0.116157, Final residual = 4.47741e-06, No Iterations 5
GAMG:  Solving for p, Initial residual = 0.618346, Final residual = 0.00387175, No Iterations 2
time step continuity errors : sum local = 8.16442e-11, global = 1.72249e-19, cumulative = -4.34945e-18
GAMG:  Solving for p, Initial residual = 0.586375, Final residual = 5.01212e-08, No Iterations 13
time step continuity errors : sum local = 9.22059e-16, global = 3.653e-19, cumulative = -3.98415e-18
smoothSolver:  Solving for epsilon, Initial residual = 0.185753, Final residual = 1.15125e-06, No Iterations 5
smoothSolver:  Solving for k, Initial residual = 0.0718078, Final residual = 3.19056e-06, No Iterations 5
ExecutionTime = 0.58 s  ClockTime = 1 s

Courant Number mean: 0.382977 max: 0.392572
deltaT = 0.294118
deltaT = 0.294118
Time = 11.7647

smoothSolver:  Solving for Ux, Initial residual = 0.00544467, Final residual = 7.42555e-06, No Iterations 3
smoothSolver:  Solving for Uy, Initial residual = 0.115625, Final residual = 4.19247e-06, No Iterations 5
GAMG:  Solving for p, Initial residual = 0.622217, Final residual = 0.00386696, No Iterations 2
time step continuity errors : sum local = 8.01692e-11, global = -9.54107e-20, cumulative = -4.07956e-18
GAMG:  Solving for p, Initial residual = 0.585937, Final residual = 5.05753e-08, No Iterations 13
time step continuity errors : sum local = 9.15479e-16, global = -7.13633e-19, cumulative = -4.79319e-18
smoothSolver:  Solving for epsilon, Initial residual = 0.178536, Final residual = 1.04482e-06, No Iterations 5
smoothSolver:  Solving for k, Initial residual = 0.0697276, Final residual = 2.78069e-06, No Iterations 5
ExecutionTime = 0.588 s  ClockTime = 1 s

Courant Number mean: 0.382842 max: 0.392561
deltaT = 0.294118
deltaT = 0.294118
Time = 12.0588

smoothSolver:  Solving for Ux, Initial residual = 0.00534886, Final residual = 7.11987e-06, No Iterations 3
smoothSolver:  Solving for Uy, Initial residual = 0.115624, Final residual = 3.99099e-06, No Iterations 5
GAMG:  Solving for p, Initial residual = 0.623417, Final residual = 0.0038765, No Iterations 2
time step continuity errors : sum local = 7.89948e-11, global = -1.22521e-18, cumulative = -6.0184e-18
GAMG:  Solving for p, Initial residual = 0.586654, Final residual = 5.08437e-08, No Iterations 13
time step continuity errors : sum local = 9.03509e-16, global = -9.81818e-19, cumulative = -7.00022e-18
smoothSolver:  Solving for epsilon, Initial residual = 0.172648, Final residual = 9.60325e-07, No Iterations 5
smoothSolver:  Solving for k, Initial residual = 0.0677675, Final residual = 2.70169e-06, No Iterations 5
ExecutionTime = 0.596 s  ClockTime = 1 s

Courant Number mean: 0.382708 max: 0.39255
deltaT = 0.294118
deltaT = 0.294118
Time = 12.3529

smoothSolver:  Solving for Ux, Initial residual = 0.00525742, Final residual = 6.8318e-06, No Iterations 3
smoothSolver:  Solving for Uy, Initial residual = 0.114907, Final residual = 3.81167e-06, No Iterations 5
GAMG:  Solving for p, Initial residual = 0.622616, Final residual = 0.00389108, No Iterations 2
time step continuity errors : sum local = 7.82125e-11, global = -2.71738e-19, cumulative = -7.27196e-18
GAMG:  Solving for p, Initial residual = 0.585071, Final residual = 5.10095e-08, No Iterations 13
time step continuity errors : sum local = 8.94781e-16, global = -1.59194e-19, cumulative = -7.43115e-18
smoothSolver:  Solving for epsilon, Initial residual = 0.166634, Final residual = 9.24053e-06, No Iterations 4
smoothSolver:  Solving for k, Initial residual = 0.0659179, Final residual = 2.50521e-06, No Iterations 5
ExecutionTime = 0.604 s  ClockTime = 1 s

Courant Number mean: 0.382576 max: 0.392539
deltaT = 0.294118
deltaT = 0.294118
Time = 12.6471

smoothSolver:  Solving for Ux, Initial residual = 0.00517004, Final residual = 6.55992e-06, No Iterations 3
smoothSolver:  Solving for Uy, Initial residual = 0.115149, Final residual = 3.61965e-06, No Iterations 5
GAMG:  Solving for p, Initial residual = 0.620598, Final residual = 0.00390849, No Iterations 2
time step continuity errors : sum local = 7.72464e-11, global = -6.01784e-19, cumulative = -8.03294e-18
GAMG:  Solving for p, Initial residual = 0.578788, Final residual = 5.10726e-08, No Iterations 13
time step continuity errors : sum local = 8.87939e-16, global = -3.34588e-19, cumulative = -8.36753e-18
smoothSolver:  Solving for epsilon, Initial residual = 0.160226, Final residual = 1.97716e-06, No Iterations 5
smoothSolver:  Solving for k, Initial residual = 0.0641697, Final residual = 2.41872e-06, No Iterations 5
ExecutionTime = 0.611 s  ClockTime = 1 s

Courant Number mean: 0.382445 max: 0.392526
deltaT = 0.294118
deltaT = 0.294118
Time = 12.9412

smoothSolver:  Solving for Ux, Initial residual = 0.00508646, Final residual = 6.3033e-06, No Iterations 3
smoothSolver:  Solving for Uy, Initial residual = 0.111778, Final residual = 3.46158e-06, No Iterations 5
GAMG:  Solving for p, Initial residual = 0.619025, Final residual = 0.00385439, No Iterations 2
time step continuity errors : sum local = 7.60546e-11, global = -1.06779e-18, cumulative = -9.43531e-18
GAMG:  Solving for p, Initial residual = 0.581369, Final residual = 5.16502e-08, No Iterations 13
time step continuity errors : sum local = 8.83732e-16, global = -4.68925e-19, cumulative = -9.90424e-18
smoothSolver:  Solving for epsilon, Initial residual = 0.154409, Final residual = 9.88904e-07, No Iterations 5
smoothSolver:  Solving for k, Initial residual = 0.0625149, Final residual = 2.30743e-06, No Iterations 5
ExecutionTime = 0.619 s  ClockTime = 1 s

Courant Number mean: 0.382315 max: 0.392512
deltaT = 0.294118
deltaT = 0.294118
Time = 13.2353

smoothSolver:  Solving for Ux, Initial residual = 0.00500642, Final residual = 6.06134e-06, No Iterations 3
smoothSolver:  Solving for Uy, Initial residual = 0.109062, Final residual = 3.25752e-06, No Iterations 5
GAMG:  Solving for p, Initial residual = 0.621488, Final residual = 0.00386313, No Iterations 2
time step continuity errors : sum local = 7.49988e-11, global = 1.01296e-19, cumulative = -9.80294e-18
GAMG:  Solving for p, Initial residual = 0.581693, Final residual = 5.19499e-08, No Iterations 13
time step continuity errors : sum local = 8.74885e-16, global = -5.95881e-19, cumulative = -1.03988e-17
smoothSolver:  Solving for epsilon, Initial residual = 0.149144, Final residual = 8.56591e-06, No Iterations 4
smoothSolver:  Solving for k, Initial residual = 0.0609467, Final residual = 2.15422e-06, No Iterations 5
ExecutionTime = 0.627 s  ClockTime = 1 s

Courant Number mean: 0.382187 max: 0.392497
deltaT = 0.294118
deltaT = 0.294118
Time = 13.5294

smoothSolver:  Solving for Ux, Initial residual = 0.00492968, Final residual = 5.83256e-06, No Iterations 3
smoothSolver:  Solving for Uy, Initial residual = 0.110584, Final residual = 3.23481e-06, No Iterations 5
GAMG:  Solving for p, Initial residual = 0.620941, Final residual = 0.00396235, No Iterations 2
time step continuity errors : sum local = 7.58297e-11, global = -7.32174e-19, cumulative = -1.1131e-17
GAMG:  Solving for p, Initial residual = 0.575187, Final residual = 5.16665e-08, No Iterations 13
time step continuity errors : sum local = 8.68958e-16, global = 6.11609e-19, cumulative = -1.05194e-17
smoothSolver:  Solving for epsilon, Initial residual = 0.143588, Final residual = 1.92166e-06, No Iterations 5
smoothSolver:  Solving for k, Initial residual = 0.0594584, Final residual = 2.04142e-06, No Iterations 5
ExecutionTime = 0.634 s  ClockTime = 1 s

Courant Number mean: 0.38206 max: 0.392482
deltaT = 0.294118
deltaT = 0.294118
Time = 13.8235

smoothSolver:  Solving for Ux, Initial residual = 0.00485605, Final residual = 5.61633e-06, No Iterations 3
smoothSolver:  Solving for Uy, Initial residual = 0.106298, Final residual = 3.04459e-06, No Iterations 5
GAMG:  Solving for p, Initial residual = 0.616306, Final residual = 0.00386952, No Iterations 2
time step continuity errors : sum local = 7.36831e-11, global = -1.35154e-19, cumulative = -1.06545e-17
GAMG:  Solving for p, Initial residual = 0.576381, Final residual = 5.20439e-08, No Iterations 13
time step continuity errors : sum local = 8.59767e-16, global = 4.30981e-19, cumulative = -1.02236e-17
smoothSolver:  Solving for epsilon, Initial residual = 0.138039, Final residual = 1.01469e-06, No Iterations 5
smoothSolver:  Solving for k, Initial residual = 0.0580442, Final residual = 2.10666e-06, No Iterations 5
ExecutionTime = 0.642 s  ClockTime = 1 s

Courant Number mean: 0.381934 max: 0.392466
deltaT = 0.294118
deltaT = 0.294118
Time = 14.1176

smoothSolver:  Solving for Ux, Initial residual = 0.00478531, Final residual = 5.4125e-06, No Iterations 3
smoothSolver:  Solving for Uy, Initial residual = 0.103384, Final residual = 2.89727e-06, No Iterations 5
GAMG:  Solving for p, Initial residual = 0.614814, Final residual = 0.00384861, No Iterations 2
time step continuity errors : sum local = 7.21045e-11, global = -3.20304e-19, cumulative = -1.05439e-17
GAMG:  Solving for p, Initial residual = 0.575171, Final residual = 5.23874e-08, No Iterations 13
time step continuity errors : sum local = 8.53167e-16, global = -1.32433e-19, cumulative = -1.06763e-17
smoothSolver:  Solving for epsilon, Initial residual = 0.13329, Final residual = 8.35636e-06, No Iterations 4
smoothSolver:  Solving for k, Initial residual = 0.0566989, Final residual = 2.067e-06, No Iterations 5
ExecutionTime = 0.65 s  ClockTime = 1 s

Courant Number mean: 0.381809 max: 0.392448
deltaT = 0.294118
deltaT = 0.294118
Time = 14.4118

smoothSolver:  Solving for Ux, Initial residual = 0.00471731, Final residual = 5.21917e-06, No Iterations 3
smoothSolver:  Solving for Uy, Initial residual = 0.103773, Final residual = 2.83358e-06, No Iterations 5
GAMG:  Solving for p, Initial residual = 0.613793, Final residual = 0.00390382, No Iterations 2
time step continuity errors : sum local = 7.17941e-11, global = -2.09521e-19, cumulative = -1.08858e-17
GAMG:  Solving for p, Initial residual = 0.570104, Final residual = 5.25243e-08, No Iterations 13
time step continuity errors : sum local = 8.48492e-16, global = -3.77417e-19, cumulative = -1.12632e-17
smoothSolver:  Solving for epsilon, Initial residual = 0.128649, Final residual = 1.61605e-06, No Iterations 5
smoothSolver:  Solving for k, Initial residual = 0.0554177, Final residual = 1.90238e-06, No Iterations 5
ExecutionTime = 0.657 s  ClockTime = 1 s

Courant Number mean: 0.381685 max: 0.39243
deltaT = 0.294118
deltaT = 0.294118
Time = 14.7059

smoothSolver:  Solving for Ux, Initial residual = 0.00465188, Final residual = 5.03645e-06, No Iterations 3
smoothSolver:  Solving for Uy, Initial residual = 0.098986, Final residual = 2.67803e-06, No Iterations 5
GAMG:  Solving for p, Initial residual = 0.614153, Final residual = 0.00388932, No Iterations 2
time step continuity errors : sum local = 7.12558e-11, global = 3.10011e-19, cumulative = -1.09532e-17
GAMG:  Solving for p, Initial residual = 0.573945, Final residual = 5.26735e-08, No Iterations 13
time step continuity errors : sum local = 8.37085e-16, global = 4.58402e-19, cumulative = -1.04948e-17
smoothSolver:  Solving for epsilon, Initial residual = 0.123916, Final residual = 8.40012e-06, No Iterations 4
smoothSolver:  Solving for k, Initial residual = 0.0541962, Final residual = 1.78908e-06, No Iterations 5
ExecutionTime = 0.664 s  ClockTime = 1 s

Courant Number mean: 0.381563 max: 0.392411
deltaT = 0.294118
deltaT = 0.294118
Time = 15

smoothSolver:  Solving for Ux, Initial residual = 0.00458886, Final residual = 4.8632e-06, No Iterations 3
smoothSolver:  Solving for Uy, Initial residual = 0.0988753, Final residual = 2.72543e-06, No Iterations 5
GAMG:  Solving for p, Initial residual = 0.617185, Final residual = 0.00397872, No Iterations 2
time step continuity errors : sum local = 7.19064e-11, global = -1.86807e-19, cumulative = -1.06816e-17
GAMG:  Solving for p, Initial residual = 0.570398, Final residual = 5.26828e-08, No Iterations 13
time step continuity errors : sum local = 8.33428e-16, global = -2.90697e-19, cumulative = -1.09723e-17
smoothSolver:  Solving for epsilon, Initial residual = 0.119583, Final residual = 1.38223e-06, No Iterations 5
smoothSolver:  Solving for k, Initial residual = 0.0530304, Final residual = 1.61076e-06, No Iterations 5
ExecutionTime = 0.672 s  ClockTime = 1 s

Courant Number mean: 0.381442 max: 0.392391
deltaT = 0.294118
deltaT = 0.294118
Time = 15.2941

smoothSolver:  Solving for Ux, Initial residual = 0.00452812, Final residual = 4.6985e-06, No Iterations 3
smoothSolver:  Solving for Uy, Initial residual = 0.0956421, Final residual = 2.60774e-06, No Iterations 5
GAMG:  Solving for p, Initial residual = 0.613277, Final residual = 0.00391277, No Iterations 2
time step continuity errors : sum local = 6.96046e-11, global = 1.78077e-19, cumulative = -1.07943e-17
GAMG:  Solving for p, Initial residual = 0.574009, Final residual = 5.32114e-08, No Iterations 13
time step continuity errors : sum local = 8.22349e-16, global = -2.29277e-19, cumulative = -1.10235e-17
smoothSolver:  Solving for epsilon, Initial residual = 0.115249, Final residual = 7.95087e-06, No Iterations 4
smoothSolver:  Solving for k, Initial residual = 0.0519167, Final residual = 1.6022e-06, No Iterations 5
ExecutionTime = 0.681 s  ClockTime = 1 s

Courant Number mean: 0.381321 max: 0.39237
deltaT = 0.294118
deltaT = 0.294118
Time = 15.5882

smoothSolver:  Solving for Ux, Initial residual = 0.00446953, Final residual = 4.54167e-06, No Iterations 3
smoothSolver:  Solving for Uy, Initial residual = 0.0965806, Final residual = 2.6157e-06, No Iterations 5
GAMG:  Solving for p, Initial residual = 0.612728, Final residual = 0.00403442, No Iterations 2
time step continuity errors : sum local = 6.99909e-11, global = 6.83981e-19, cumulative = -1.03395e-17
GAMG:  Solving for p, Initial residual = 0.570269, Final residual = 5.34283e-08, No Iterations 13
time step continuity errors : sum local = 8.1874e-16, global = -7.64112e-19, cumulative = -1.11037e-17
smoothSolver:  Solving for epsilon, Initial residual = 0.111488, Final residual = 9.58332e-06, No Iterations 4
smoothSolver:  Solving for k, Initial residual = 0.0508518, Final residual = 1.6938e-06, No Iterations 5
ExecutionTime = 0.689 s  ClockTime = 1 s

Courant Number mean: 0.381202 max: 0.392348
deltaT = 0.294118
deltaT = 0.294118
Time = 15.8824

smoothSolver:  Solving for Ux, Initial residual = 0.00441297, Final residual = 4.39238e-06, No Iterations 3
smoothSolver:  Solving for Uy, Initial residual = 0.0943642, Final residual = 2.61604e-06, No Iterations 5
[...]
smoothSolver:  Solving for epsilon, Initial residual = 0.00462994, Final residual = 6.37703e-07, No Iterations 3
smoothSolver:  Solving for k, Initial residual = 0.0155399, Final residual = 3.96767e-06, No Iterations 3
ExecutionTime = 3.173 s  ClockTime = 3 s

Courant Number mean: 0.365778 max: 0.388275
deltaT = 0.30303
deltaT = 0.30303
Time = 94.2424

smoothSolver:  Solving for Ux, Initial residual = 0.00193138, Final residual = 3.40619e-06, No Iterations 2
smoothSolver:  Solving for Uy, Initial residual = 0.0384231, Final residual = 2.58754e-06, No Iterations 4
GAMG:  Solving for p, Initial residual = 0.683917, Final residual = 0.00565807, No Iterations 2
time step continuity errors : sum local = 3.08586e-10, global = 1.95039e-19, cumulative = -1.1872e-16
GAMG:  Solving for p, Initial residual = 0.634572, Final residual = 5.11209e-08, No Iterations 13
time step continuity errors : sum local = 2.79057e-15, global = 1.33784e-19, cumulative = -1.18586e-16
smoothSolver:  Solving for epsilon, Initial residual = 0.00457653, Final residual = 9.73492e-06, No Iterations 2
smoothSolver:  Solving for k, Initial residual = 0.0155531, Final residual = 4.09595e-06, No Iterations 3
ExecutionTime = 3.186 s  ClockTime = 3 s

Courant Number mean: 0.365686 max: 0.388209
deltaT = 0.30303
deltaT = 0.30303
Time = 94.5455

smoothSolver:  Solving for Ux, Initial residual = 0.00192702, Final residual = 3.38558e-06, No Iterations 2
smoothSolver:  Solving for Uy, Initial residual = 0.039926, Final residual = 3.5127e-06, No Iterations 4
GAMG:  Solving for p, Initial residual = 0.6915, Final residual = 0.00562618, No Iterations 2
time step continuity errors : sum local = 3.09729e-10, global = -8.61731e-20, cumulative = -1.18672e-16
GAMG:  Solving for p, Initial residual = 0.626425, Final residual = 5.06207e-08, No Iterations 13
time step continuity errors : sum local = 2.8041e-15, global = -7.18847e-19, cumulative = -1.19391e-16
smoothSolver:  Solving for epsilon, Initial residual = 0.00452839, Final residual = 9.50788e-07, No Iterations 3
smoothSolver:  Solving for k, Initial residual = 0.0155669, Final residual = 3.73104e-06, No Iterations 3
ExecutionTime = 3.198 s  ClockTime = 3 s

Courant Number mean: 0.365594 max: 0.388143
deltaT = 0.30303
deltaT = 0.30303
Time = 94.8485

smoothSolver:  Solving for Ux, Initial residual = 0.00192268, Final residual = 3.36517e-06, No Iterations 2
smoothSolver:  Solving for Uy, Initial residual = 0.037849, Final residual = 2.67753e-06, No Iterations 4
GAMG:  Solving for p, Initial residual = 0.680731, Final residual = 0.00562276, No Iterations 2
time step continuity errors : sum local = 3.08123e-10, global = -6.243e-19, cumulative = -1.20015e-16
GAMG:  Solving for p, Initial residual = 0.630045, Final residual = 5.06657e-08, No Iterations 13
time step continuity errors : sum local = 2.77705e-15, global = -8.42144e-19, cumulative = -1.20858e-16
smoothSolver:  Solving for epsilon, Initial residual = 0.0044774, Final residual = 7.14616e-07, No Iterations 3
smoothSolver:  Solving for k, Initial residual = 0.0155811, Final residual = 3.70418e-06, No Iterations 3
ExecutionTime = 3.21 s  ClockTime = 3 s

Courant Number mean: 0.365502 max: 0.388077
deltaT = 0.30303
deltaT = 0.30303
Time = 95.1515

smoothSolver:  Solving for Ux, Initial residual = 0.00191836, Final residual = 3.34503e-06, No Iterations 2
smoothSolver:  Solving for Uy, Initial residual = 0.0364631, Final residual = 2.49414e-06, No Iterations 4
GAMG:  Solving for p, Initial residual = 0.681696, Final residual = 0.00566448, No Iterations 2
time step continuity errors : sum local = 3.08476e-10, global = -1.15419e-19, cumulative = -1.20973e-16
GAMG:  Solving for p, Initial residual = 0.631966, Final residual = 5.06083e-08, No Iterations 13
time step continuity errors : sum local = 2.76193e-15, global = 9.13518e-20, cumulative = -1.20882e-16
smoothSolver:  Solving for epsilon, Initial residual = 0.0044343, Final residual = 6.44692e-07, No Iterations 3
smoothSolver:  Solving for k, Initial residual = 0.015596, Final residual = 4.05321e-06, No Iterations 3
ExecutionTime = 3.219 s  ClockTime = 3 s

Courant Number mean: 0.365411 max: 0.388012
deltaT = 0.30303
deltaT = 0.30303
Time = 95.4545

smoothSolver:  Solving for Ux, Initial residual = 0.00191406, Final residual = 3.32519e-06, No Iterations 2
smoothSolver:  Solving for Uy, Initial residual = 0.0353652, Final residual = 2.39474e-06, No Iterations 4
GAMG:  Solving for p, Initial residual = 0.68225, Final residual = 0.00569124, No Iterations 2
time step continuity errors : sum local = 3.08237e-10, global = -3.95431e-19, cumulative = -1.21277e-16
GAMG:  Solving for p, Initial residual = 0.633325, Final residual = 5.06249e-08, No Iterations 13
time step continuity errors : sum local = 2.75295e-15, global = -4.701e-19, cumulative = -1.21747e-16
smoothSolver:  Solving for epsilon, Initial residual = 0.00438582, Final residual = 9.97952e-06, No Iterations 2
smoothSolver:  Solving for k, Initial residual = 0.0156116, Final residual = 3.70017e-06, No Iterations 3
ExecutionTime = 3.227 s  ClockTime = 3 s

Courant Number mean: 0.365319 max: 0.387946
deltaT = 0.30303
deltaT = 0.30303
Time = 95.7576

smoothSolver:  Solving for Ux, Initial residual = 0.00190977, Final residual = 3.30548e-06, No Iterations 2
smoothSolver:  Solving for Uy, Initial residual = 0.0373073, Final residual = 3.20023e-06, No Iterations 4
GAMG:  Solving for p, Initial residual = 0.690166, Final residual = 0.00566323, No Iterations 2
time step continuity errors : sum local = 3.08945e-10, global = -8.3702e-20, cumulative = -1.21831e-16
GAMG:  Solving for p, Initial residual = 0.626972, Final residual = 5.04024e-08, No Iterations 13
time step continuity errors : sum local = 2.77335e-15, global = -1.74776e-19, cumulative = -1.22006e-16
smoothSolver:  Solving for epsilon, Initial residual = 0.00433731, Final residual = 8.71152e-07, No Iterations 3
smoothSolver:  Solving for k, Initial residual = 0.0156277, Final residual = 3.8401e-06, No Iterations 3
ExecutionTime = 3.236 s  ClockTime = 3 s

Courant Number mean: 0.365228 max: 0.387881
deltaT = 0.30303
deltaT = 0.30303
Time = 96.0606

smoothSolver:  Solving for Ux, Initial residual = 0.0019055, Final residual = 3.28597e-06, No Iterations 2
smoothSolver:  Solving for Uy, Initial residual = 0.0347982, Final residual = 2.30148e-06, No Iterations 4
GAMG:  Solving for p, Initial residual = 0.680736, Final residual = 0.00567037, No Iterations 2
time step continuity errors : sum local = 3.07748e-10, global = -5.03654e-19, cumulative = -1.22509e-16
GAMG:  Solving for p, Initial residual = 0.630668, Final residual = 5.03826e-08, No Iterations 13
time step continuity errors : sum local = 2.74329e-15, global = -7.76487e-19, cumulative = -1.23286e-16
smoothSolver:  Solving for epsilon, Initial residual = 0.0042914, Final residual = 7.49197e-07, No Iterations 3
smoothSolver:  Solving for k, Initial residual = 0.0156444, Final residual = 3.63311e-06, No Iterations 3
ExecutionTime = 3.246 s  ClockTime = 3 s

Courant Number mean: 0.365136 max: 0.387815
deltaT = 0.30303
deltaT = 0.30303
Time = 96.3636

smoothSolver:  Solving for Ux, Initial residual = 0.00190125, Final residual = 3.26681e-06, No Iterations 2
smoothSolver:  Solving for Uy, Initial residual = 0.0340427, Final residual = 2.19772e-06, No Iterations 4
GAMG:  Solving for p, Initial residual = 0.681859, Final residual = 0.00571508, No Iterations 2
time step continuity errors : sum local = 3.0795e-10, global = -2.94096e-19, cumulative = -1.2358e-16
GAMG:  Solving for p, Initial residual = 0.632888, Final residual = 5.04095e-08, No Iterations 13
time step continuity errors : sum local = 2.73049e-15, global = -7.82798e-19, cumulative = -1.24363e-16
smoothSolver:  Solving for epsilon, Initial residual = 0.00424618, Final residual = 7.19745e-07, No Iterations 3
smoothSolver:  Solving for k, Initial residual = 0.0156617, Final residual = 3.74549e-06, No Iterations 3
ExecutionTime = 3.254 s  ClockTime = 3 s

Courant Number mean: 0.365045 max: 0.38775
deltaT = 0.30303
deltaT = 0.30303
Time = 96.6667

smoothSolver:  Solving for Ux, Initial residual = 0.00189702, Final residual = 3.2478e-06, No Iterations 2
smoothSolver:  Solving for Uy, Initial residual = 0.0332586, Final residual = 2.14825e-06, No Iterations 4
GAMG:  Solving for p, Initial residual = 0.683431, Final residual = 0.00574539, No Iterations 2
time step continuity errors : sum local = 3.07874e-10, global = -1.28279e-19, cumulative = -1.24491e-16
GAMG:  Solving for p, Initial residual = 0.635256, Final residual = 5.0501e-08, No Iterations 13
time step continuity errors : sum local = 2.72289e-15, global = -9.86149e-20, cumulative = -1.2459e-16
smoothSolver:  Solving for epsilon, Initial residual = 0.00420014, Final residual = 9.48395e-06, No Iterations 2
smoothSolver:  Solving for k, Initial residual = 0.0156798, Final residual = 3.59186e-06, No Iterations 3
ExecutionTime = 3.264 s  ClockTime = 3 s

Courant Number mean: 0.364954 max: 0.387684
deltaT = 0.30303
deltaT = 0.30303
Time = 96.9697

smoothSolver:  Solving for Ux, Initial residual = 0.0018928, Final residual = 3.22898e-06, No Iterations 2
smoothSolver:  Solving for Uy, Initial residual = 0.0366092, Final residual = 3.13584e-06, No Iterations 4
GAMG:  Solving for p, Initial residual = 0.692114, Final residual = 0.00571342, No Iterations 2
time step continuity errors : sum local = 3.08376e-10, global = 9.65125e-20, cumulative = -1.24493e-16
GAMG:  Solving for p, Initial residual = 0.625747, Final residual = 5.01794e-08, No Iterations 13
time step continuity errors : sum local = 2.74982e-15, global = -3.16321e-20, cumulative = -1.24525e-16
smoothSolver:  Solving for epsilon, Initial residual = 0.00415894, Final residual = 7.3834e-07, No Iterations 3
smoothSolver:  Solving for k, Initial residual = 0.0156983, Final residual = 3.87597e-06, No Iterations 3
ExecutionTime = 3.273 s  ClockTime = 3 s

Courant Number mean: 0.364863 max: 0.387619
deltaT = 0.30303
deltaT = 0.30303
Time = 97.2727

smoothSolver:  Solving for Ux, Initial residual = 0.0018886, Final residual = 3.21053e-06, No Iterations 2
smoothSolver:  Solving for Uy, Initial residual = 0.0333513, Final residual = 2.09629e-06, No Iterations 4
GAMG:  Solving for p, Initial residual = 0.679033, Final residual = 0.00571057, No Iterations 2
time step continuity errors : sum local = 3.07619e-10, global = -4.98296e-19, cumulative = -1.25023e-16
GAMG:  Solving for p, Initial residual = 0.630432, Final residual = 4.99724e-08, No Iterations 13
time step continuity errors : sum local = 2.70712e-15, global = -1.61486e-19, cumulative = -1.25184e-16
smoothSolver:  Solving for epsilon, Initial residual = 0.00411161, Final residual = 6.79738e-07, No Iterations 3
smoothSolver:  Solving for k, Initial residual = 0.0157174, Final residual = 3.68545e-06, No Iterations 3
ExecutionTime = 3.281 s  ClockTime = 3 s

Courant Number mean: 0.364772 max: 0.387554
deltaT = 0.30303
deltaT = 0.30303
Time = 97.5758

smoothSolver:  Solving for Ux, Initial residual = 0.00188441, Final residual = 3.19235e-06, No Iterations 2
smoothSolver:  Solving for Uy, Initial residual = 0.0330381, Final residual = 2.02088e-06, No Iterations 4
GAMG:  Solving for p, Initial residual = 0.6818, Final residual = 0.00575688, No Iterations 2
time step continuity errors : sum local = 3.0773e-10, global = 2.47473e-19, cumulative = -1.24937e-16
GAMG:  Solving for p, Initial residual = 0.63391, Final residual = 5.01258e-08, No Iterations 13
time step continuity errors : sum local = 2.69904e-15, global = 2.27462e-19, cumulative = -1.24709e-16
smoothSolver:  Solving for epsilon, Initial residual = 0.00407232, Final residual = 9.65649e-06, No Iterations 2
smoothSolver:  Solving for k, Initial residual = 0.0157374, Final residual = 4.01542e-06, No Iterations 3
ExecutionTime = 3.289 s  ClockTime = 3 s

Courant Number mean: 0.364681 max: 0.387489
deltaT = 0.30303
deltaT = 0.30303
Time = 97.8788

smoothSolver:  Solving for Ux, Initial residual = 0.00188025, Final residual = 3.1743e-06, No Iterations 2
smoothSolver:  Solving for Uy, Initial residual = 0.0369205, Final residual = 3.15524e-06, No Iterations 4
GAMG:  Solving for p, Initial residual = 0.6915, Final residual = 0.00574375, No Iterations 2
time step continuity errors : sum local = 3.08723e-10, global = -5.0709e-19, cumulative = -1.25217e-16
GAMG:  Solving for p, Initial residual = 0.626345, Final residual = 4.98245e-08, No Iterations 13
time step continuity errors : sum local = 2.71837e-15, global = 1.61939e-19, cumulative = -1.25055e-16
smoothSolver:  Solving for epsilon, Initial residual = 0.00402622, Final residual = 7.11616e-07, No Iterations 3
smoothSolver:  Solving for k, Initial residual = 0.0157578, Final residual = 3.88545e-06, No Iterations 3
ExecutionTime = 3.297 s  ClockTime = 3 s

Courant Number mean: 0.36459 max: 0.387423
deltaT = 0.30303
deltaT = 0.30303
Time = 98.1818

smoothSolver:  Solving for Ux, Initial residual = 0.00187609, Final residual = 3.15641e-06, No Iterations 2
smoothSolver:  Solving for Uy, Initial residual = 0.033353, Final residual = 2.08786e-06, No Iterations 4
GAMG:  Solving for p, Initial residual = 0.679985, Final residual = 0.00574047, No Iterations 2
time step continuity errors : sum local = 3.076e-10, global = 1.78575e-19, cumulative = -1.24876e-16
GAMG:  Solving for p, Initial residual = 0.631363, Final residual = 4.96408e-08, No Iterations 13
time step continuity errors : sum local = 2.67551e-15, global = -3.35137e-19, cumulative = -1.25211e-16
smoothSolver:  Solving for epsilon, Initial residual = 0.00398607, Final residual = 9.82139e-06, No Iterations 2
smoothSolver:  Solving for k, Initial residual = 0.0157791, Final residual = 4.04614e-06, No Iterations 3
ExecutionTime = 3.305 s  ClockTime = 3 s

Courant Number mean: 0.364499 max: 0.387358
deltaT = 0.30303
deltaT = 0.30303
Time = 98.4848

smoothSolver:  Solving for Ux, Initial residual = 0.00187196, Final residual = 3.13863e-06, No Iterations 2
smoothSolver:  Solving for Uy, Initial residual = 0.0360217, Final residual = 2.87594e-06, No Iterations 4
GAMG:  Solving for p, Initial residual = 0.689414, Final residual = 0.00573409, No Iterations 2
time step continuity errors : sum local = 3.08001e-10, global = 2.03408e-20, cumulative = -1.25191e-16
GAMG:  Solving for p, Initial residual = 0.625452, Final residual = 4.95393e-08, No Iterations 13
time step continuity errors : sum local = 2.69871e-15, global = 1.48028e-19, cumulative = -1.25043e-16
smoothSolver:  Solving for epsilon, Initial residual = 0.00394143, Final residual = 8.30715e-07, No Iterations 3
smoothSolver:  Solving for k, Initial residual = 0.0158008, Final residual = 4.03841e-06, No Iterations 3
ExecutionTime = 3.314 s  ClockTime = 3 s

Courant Number mean: 0.364408 max: 0.387293
deltaT = 0.30303
deltaT = 0.30303
Time = 98.7879

smoothSolver:  Solving for Ux, Initial residual = 0.00186784, Final residual = 3.12105e-06, No Iterations 2
smoothSolver:  Solving for Uy, Initial residual = 0.0329409, Final residual = 1.96447e-06, No Iterations 4
GAMG:  Solving for p, Initial residual = 0.680208, Final residual = 0.00575846, No Iterations 2
time step continuity errors : sum local = 3.07655e-10, global = 6.42384e-19, cumulative = -1.244e-16
GAMG:  Solving for p, Initial residual = 0.631263, Final residual = 4.94403e-08, No Iterations 13
time step continuity errors : sum local = 2.65935e-15, global = 1.52594e-19, cumulative = -1.24248e-16
smoothSolver:  Solving for epsilon, Initial residual = 0.00390745, Final residual = 6.73204e-07, No Iterations 3
smoothSolver:  Solving for k, Initial residual = 0.0158231, Final residual = 4.21371e-06, No Iterations 3
ExecutionTime = 3.322 s  ClockTime = 3 s

Courant Number mean: 0.364318 max: 0.387228
deltaT = 0.30303
deltaT = 0.30303
Time = 99.0909

smoothSolver:  Solving for Ux, Initial residual = 0.00186374, Final residual = 3.10363e-06, No Iterations 2
smoothSolver:  Solving for Uy, Initial residual = 0.032477, Final residual = 1.84049e-06, No Iterations 4
GAMG:  Solving for p, Initial residual = 0.683328, Final residual = 0.00581264, No Iterations 2
time step continuity errors : sum local = 3.07608e-10, global = 2.91404e-19, cumulative = -1.23956e-16
GAMG:  Solving for p, Initial residual = 0.635184, Final residual = 4.96171e-08, No Iterations 13
time step continuity errors : sum local = 2.64857e-15, global = 2.86482e-19, cumulative = -1.2367e-16
smoothSolver:  Solving for epsilon, Initial residual = 0.0038633, Final residual = 8.11386e-06, No Iterations 2
smoothSolver:  Solving for k, Initial residual = 0.0158463, Final residual = 4.27009e-06, No Iterations 3
ExecutionTime = 3.33 s  ClockTime = 3 s

Courant Number mean: 0.364227 max: 0.387163
deltaT = 0.30303
deltaT = 0.30303
Time = 99.3939

smoothSolver:  Solving for Ux, Initial residual = 0.00185966, Final residual = 3.0865e-06, No Iterations 2
smoothSolver:  Solving for Uy, Initial residual = 0.0350295, Final residual = 2.6511e-06, No Iterations 4
GAMG:  Solving for p, Initial residual = 0.693758, Final residual = 0.00580339, No Iterations 2
time step continuity errors : sum local = 3.0763e-10, global = 6.00334e-19, cumulative = -1.2307e-16
GAMG:  Solving for p, Initial residual = 0.629884, Final residual = 4.97009e-08, No Iterations 13
time step continuity errors : sum local = 2.67937e-15, global = -3.6643e-19, cumulative = -1.23436e-16
smoothSolver:  Solving for epsilon, Initial residual = 0.00382327, Final residual = 9.88409e-06, No Iterations 2
smoothSolver:  Solving for k, Initial residual = 0.0158701, Final residual = 4.40232e-06, No Iterations 3
ExecutionTime = 3.338 s  ClockTime = 3 s

Courant Number mean: 0.364137 max: 0.387098
deltaT = 0.30303
deltaT = 0.30303
Time = 99.697

smoothSolver:  Solving for Ux, Initial residual = 0.00185559, Final residual = 3.06947e-06, No Iterations 2
smoothSolver:  Solving for Uy, Initial residual = 0.0357611, Final residual = 3.13247e-06, No Iterations 4
GAMG:  Solving for p, Initial residual = 0.690682, Final residual = 0.00576321, No Iterations 2
time step continuity errors : sum local = 3.08159e-10, global = -3.90083e-19, cumulative = -1.23826e-16
GAMG:  Solving for p, Initial residual = 0.625296, Final residual = 4.89389e-08, No Iterations 13
time step continuity errors : sum local = 2.65455e-15, global = 3.19033e-19, cumulative = -1.23507e-16
smoothSolver:  Solving for epsilon, Initial residual = 0.00377848, Final residual = 8.97554e-07, No Iterations 3
smoothSolver:  Solving for k, Initial residual = 0.0158945, Final residual = 4.62796e-06, No Iterations 3
ExecutionTime = 3.346 s  ClockTime = 3 s

Courant Number mean: 0.364046 max: 0.387034
deltaT = 0.30303
deltaT = 0.30303
Time = 100

smoothSolver:  Solving for Ux, Initial residual = 0.00185153, Final residual = 3.05268e-06, No Iterations 2
smoothSolver:  Solving for Uy, Initial residual = 0.0321635, Final residual = 1.95629e-06, No Iterations 4
GAMG:  Solving for p, Initial residual = 0.680152, Final residual = 0.00579019, No Iterations 2
time step continuity errors : sum local = 3.07272e-10, global = -1.40932e-19, cumulative = -1.23648e-16
GAMG:  Solving for p, Initial residual = 0.631465, Final residual = 4.89778e-08, No Iterations 13
time step continuity errors : sum local = 2.62151e-15, global = 4.85901e-20, cumulative = -1.23599e-16
smoothSolver:  Solving for epsilon, Initial residual = 0.00374456, Final residual = 9.61054e-06, No Iterations 2
smoothSolver:  Solving for k, Initial residual = 0.0159197, Final residual = 4.83496e-06, No Iterations 3
ExecutionTime = 3.396 s  ClockTime = 3 s

End

