/*---------------------------------------------------------------------------*\
  =========                 |
  \\      /  F ield         | OpenFOAM: The Open Source CFD Toolbox
   \\    /   O peration     | Website:  https://openfoam.org
    \\  /    A nd           | Version:  dev
     \\/     M anipulation  |

   OpenFOAM for Windows 20.09 (v1)
   Built by CFD Support, www.cfdsupport.com (based on Symscape).
\*---------------------------------------------------------------------------*/
Build  : dev-d26757ee1926
Exec   : interFoam -parallel
Date   : May 30 2023
Time   : 12:12:59
Host   : "DESKTOP-HU5TJA8"
PID    : 26840
I/O    : uncollated
Case   : D:/app/Openfoam/20.09/sheng-dev/run/piml/cases/twophase
nProcs : 8
Slaves : 
7
(
"DESKTOP-HU5TJA8.30640"
"DESKTOP-HU5TJA8.27564"
"DESKTOP-HU5TJA8.24668"
"DESKTOP-HU5TJA8.16968"
"DESKTOP-HU5TJA8.12224"
"DESKTOP-HU5TJA8.32724"
"DESKTOP-HU5TJA8.14260"
)

Pstream initialized with:
    floatTransfer      : 0
    nProcsSimpleSum    : 0
    commsType          : nonBlocking
    polling iterations : 0
fileModificationChecking : Monitoring run-time modified files using timeStampMaster (fileModificationSkew 10)
allowSystemOperations : Allowing user-supplied system call operations

// * * * * * * * * * * * * * * * * * * * * * * * * * * * * * * * * * * * * * //
Create time

Create mesh for time = 0


PIMPLE: No convergence criteria found


PIMPLE: Operating solver in transient mode with 1 outer corrector
PIMPLE: Operating solver in PISO mode


Reading field p_rgh

Reading field U

Reading/calculating face flux field phi

Reading transportProperties

Selecting incompressible transport model Newtonian
Selecting incompressible transport model Newtonian
Selecting turbulence model type RAS
Selecting RAS turbulence model kOmegaSST
Selecting patchDistMethod meshWave
bounding k, min: 1e-20 max: 1e-20 average: 1e-20
bounding omega, min: 1e-20 max: 1e-20 average: 1e-20
RAS
{
    RASModel        kOmegaSST;
    turbulence      on;
    printCoeffs     on;
    alphaK1         0.85;
    alphaK2         1;
    alphaOmega1     0.5;
    alphaOmega2     0.856;
    gamma1          0.555556;
    gamma2          0.44;
    beta1           0.075;
    beta2           0.0828;
    betaStar        0.09;
    a1              0.31;
    b1              1;
    c1              10;
    F3              false;
}


Reading g

Reading hRef
Calculating field g.h

No MRF models present

Creating finite volume options from "constant/fvOptions"

No finite volume options present
DICPCG:  Solving for pcorr, Initial residual = 0, Final residual = 0, No Iterations 0
time step continuity errors : sum local = 0, global = 0, cumulative = 0
Courant Number mean: 0 max: 0

Starting time loop

turbulenceFields turbulenceFields1: storing fields:
    "nuEff"
    "R"
    "devReff"
    "epsilon"

--> FOAM Warning : 
    From function void Foam::timeControl::read(const Foam::dictionary&)
    in file db/functionObjects/timeControl/timeControl.C at line 89
    Reading "D:/app/Openfoam/20.09/sheng-dev/run/piml/cases/twophase/system/controlDict/functions/fieldAverage" from line 97 to line 116
    Using deprecated 'outputControl'
    Please use 'writeControl' with 'writeInterval'
yPlus yplus write:
    writing object yPlus
    patch topWall y+ : min = 1.80238e-08, max = 1.80238e-08, average = 1.80238e-08
    patch botWall y+ : min = 1.80238e-08, max = 1.80238e-08, average = 1.80238e-08

--> FOAM Warning :     functionObjects::grad grad1 cannot find required object U of type volScalarField
--> FOAM Warning :     functionObjects::grad grad1 cannot find required object U of type surfaceScalarField
--> FOAM Warning :     functionObjects::grad grad4 cannot find required object R of type volScalarField
--> FOAM Warning :     functionObjects::grad grad4 cannot find required object R of type surfaceScalarField
--> FOAM Warning :     functionObjects::grad grad4 cannot find required object R of type volVectorField
--> FOAM Warning :     functionObjects::grad grad4 cannot find required object R of type surfaceVectorField
--> FOAM Warning :     functionObjects::grad grad4 failed to execute.
Courant Number mean: 0 max: 0
Interface Courant Number mean: 0 max: 0
deltaT = 0.00359712
Time = 0.00359712

smoothSolver:  Solving for alpha.water, Initial residual = 0, Final residual = 0, No Iterations 0
Phase-1 volume fraction = 0.5  Min(alpha.water) = 0  Max(alpha.water) = 1
MULES: Correcting alpha.water
MULES: Correcting alpha.water
Phase-1 volume fraction = 0.5  Min(alpha.water) = 0  Max(alpha.water) = 1
DICPCG:  Solving for p_rgh, Initial residual = 0.999992, Final residual = 0.0447677, No Iterations 3
time step continuity errors : sum local = 1.29503e-06, global = -7.43867e-23, cumulative = -7.43867e-23
DICPCG:  Solving for p_rgh, Initial residual = 0.0392922, Final residual = 0.00176038, No Iterations 19
time step continuity errors : sum local = 1.44282e-07, global = -2.83599e-22, cumulative = -3.57986e-22
DICPCG:  Solving for p_rgh, Initial residual = 0.0203956, Final residual = 4.21756e-08, No Iterations 104
time step continuity errors : sum local = 2.55522e-12, global = -7.44978e-22, cumulative = -1.10296e-21
smoothSolver:  Solving for omega, Initial residual = 0.334792, Final residual = 0.00425001, No Iterations 1000
smoothSolver:  Solving for k, Initial residual = 0.999972, Final residual = 0.00255825, No Iterations 1000
ExecutionTime = 0.174 s  ClockTime = 0 s

Courant Number mean: 9.08365e-07 max: 4.87202e-06
Interface Courant Number mean: 0 max: 0
deltaT = 0.00431189
Time = 0.00790901

smoothSolver:  Solving for alpha.water, Initial residual = 1.31005e-08, Final residual = 1.32722e-16, No Iterations 1
Phase-1 volume fraction = 0.5  Min(alpha.water) = 0  Max(alpha.water) = 1
MULES: Correcting alpha.water
MULES: Correcting alpha.water
Phase-1 volume fraction = 0.5  Min(alpha.water) = 0  Max(alpha.water) = 1
DICPCG:  Solving for p_rgh, Initial residual = 0.00371853, Final residual = 0.000135916, No Iterations 71
time step continuity errors : sum local = 4.31755e-05, global = -1.42847e-18, cumulative = -1.42957e-18
DICPCG:  Solving for p_rgh, Initial residual = 0.000225876, Final residual = 1.06147e-05, No Iterations 27
time step continuity errors : sum local = 3.35763e-06, global = -1.50506e-18, cumulative = -2.93463e-18
DICPCG:  Solving for p_rgh, Initial residual = 9.0572e-05, Final residual = 6.17018e-08, No Iterations 95
time step continuity errors : sum local = 1.86489e-08, global = -1.47182e-18, cumulative = -4.40645e-18
smoothSolver:  Solving for omega, Initial residual = 0.835206, Final residual = 8.58198e-07, No Iterations 4
smoothSolver:  Solving for k, Initial residual = 0.815648, Final residual = 4.347e-07, No Iterations 11
bounding k, min: 3.67801e-17 max: 1.03891e-15 average: 9.15269e-16
ExecutionTime = 0.19 s  ClockTime = 0 s

Courant Number mean: 0.000175224 max: 0.000340462
Interface Courant Number mean: 0 max: 0
deltaT = 0.00517426
Time = 0.0130833

smoothSolver:  Solving for alpha.water, Initial residual = 1.91043e-07, Final residual = 1.59565e-12, No Iterations 1
Phase-1 volume fraction = 0.5  Min(alpha.water) = 0  Max(alpha.water) = 1
MULES: Correcting alpha.water
MULES: Correcting alpha.water
Phase-1 volume fraction = 0.5  Min(alpha.water) = 0  Max(alpha.water) = 1
DICPCG:  Solving for p_rgh, Initial residual = 4.13862e-05, Final residual = 1.9874e-06, No Iterations 23
time step continuity errors : sum local = 8.58129e-07, global = 7.00627e-18, cumulative = 2.59981e-18
DICPCG:  Solving for p_rgh, Initial residual = 4.81016e-06, Final residual = 2.23936e-07, No Iterations 71
time step continuity errors : sum local = 8.38061e-08, global = -8.58392e-21, cumulative = 2.59123e-18
DICPCG:  Solving for p_rgh, Initial residual = 2.25273e-06, Final residual = 5.20672e-08, No Iterations 72
time step continuity errors : sum local = 1.94417e-08, global = -1.60483e-20, cumulative = 2.57518e-18
smoothSolver:  Solving for omega, Initial residual = 0.0404661, Final residual = 4.44548e-07, No Iterations 9
smoothSolver:  Solving for k, Initial residual = 0.389114, Final residual = 6.00966e-07, No Iterations 13
bounding k, min: 6.09122e-18 max: 6.57167e-16 average: 5.60767e-16
ExecutionTime = 0.19 s  ClockTime = 0 s

Courant Number mean: 0.000415069 max: 0.000780334
Interface Courant Number mean: 0 max: 0
deltaT = 0.00620911
Time = 0.0192924

smoothSolver:  Solving for alpha.water, Initial residual = 1.1127e-07, Final residual = 2.21455e-12, No Iterations 1
Phase-1 volume fraction = 0.5  Min(alpha.water) = 0  Max(alpha.water) = 1
MULES: Correcting alpha.water
MULES: Correcting alpha.water
Phase-1 volume fraction = 0.5  Min(alpha.water) = -2.31083e-136  Max(alpha.water) = 1
DICPCG:  Solving for p_rgh, Initial residual = 1.92504e-05, Final residual = 9.17305e-07, No Iterations 2
time step continuity errors : sum local = 4.25148e-07, global = -2.08049e-18, cumulative = 4.94694e-19
DICPCG:  Solving for p_rgh, Initial residual = 1.72105e-06, Final residual = 8.14312e-08, No Iterations 29
time step continuity errors : sum local = 4.25231e-08, global = -2.09381e-18, cumulative = -1.59912e-18
DICPCG:  Solving for p_rgh, Initial residual = 7.88873e-07, Final residual = 7.52473e-08, No Iterations 11
time step continuity errors : sum local = 3.95711e-08, global = -2.10856e-18, cumulative = -3.70768e-18
smoothSolver:  Solving for omega, Initial residual = 0.02754, Final residual = 4.42676e-07, No Iterations 10
smoothSolver:  Solving for k, Initial residual = 0.364278, Final residual = 7.37547e-07, No Iterations 15
bounding k, min: 5.37817e-18 max: 4.62114e-16 average: 3.88644e-16
ExecutionTime = 0.205 s  ClockTime = 0 s

Courant Number mean: 0.000767994 max: 0.0014505
Interface Courant Number mean: 0 max: 0
deltaT = 0.00744627
Time = 0.0267387

smoothSolver:  Solving for alpha.water, Initial residual = 8.08957e-08, Final residual = 2.49896e-12, No Iterations 1
Phase-1 volume fraction = 0.5  Min(alpha.water) = 0  Max(alpha.water) = 1
MULES: Correcting alpha.water
MULES: Correcting alpha.water
Phase-1 volume fraction = 0.5  Min(alpha.water) = 0  Max(alpha.water) = 1
DICPCG:  Solving for p_rgh, Initial residual = 1.57862e-05, Final residual = 6.51612e-07, No Iterations 2
time step continuity errors : sum local = 3.78528e-07, global = -5.05171e-18, cumulative = -8.75939e-18
DICPCG:  Solving for p_rgh, Initial residual = 1.17534e-06, Final residual = 8.79471e-08, No Iterations 16
time step continuity errors : sum local = 5.41425e-08, global = -5.06666e-18, cumulative = -1.3826e-17
DICPCG:  Solving for p_rgh, Initial residual = 5.75775e-07, Final residual = 7.13655e-08, No Iterations 16
time step continuity errors : sum local = 4.80361e-08, global = -5.05585e-18, cumulative = -1.88819e-17
smoothSolver:  Solving for omega, Initial residual = 0.00907627, Final residual = 7.70532e-07, No Iterations 10
smoothSolver:  Solving for k, Initial residual = 0.438505, Final residual = 8.09328e-07, No Iterations 17
bounding k, min: 4.25985e-18 max: 3.43497e-16 average: 2.84458e-16
ExecutionTime = 0.205 s  ClockTime = 0 s

Courant Number mean: 0.00126637 max: 0.00240578
Interface Courant Number mean: 0 max: 0
deltaT = 0.00892878
Time = 0.0356674

smoothSolver:  Solving for alpha.water, Initial residual = 5.04244e-08, Final residual = 3.63429e-12, No Iterations 1
Phase-1 volume fraction = 0.5  Min(alpha.water) = 0  Max(alpha.water) = 1
MULES: Correcting alpha.water
MULES: Correcting alpha.water
Phase-1 volume fraction = 0.5  Min(alpha.water) = 0  Max(alpha.water) = 1
DICPCG:  Solving for p_rgh, Initial residual = 1.02898e-05, Final residual = 3.79594e-07, No Iterations 2
time step continuity errors : sum local = 2.63294e-07, global = -3.04107e-18, cumulative = -2.1923e-17
DICPCG:  Solving for p_rgh, Initial residual = 6.8461e-07, Final residual = 7.15697e-08, No Iterations 11
time step continuity errors : sum local = 5.76925e-08, global = -6.08678e-18, cumulative = -2.80098e-17
DICPCG:  Solving for p_rgh, Initial residual = 3.78113e-07, Final residual = 7.2989e-08, No Iterations 8
time step continuity errors : sum local = 5.92714e-08, global = -3.04154e-18, cumulative = -3.10513e-17
smoothSolver:  Solving for omega, Initial residual = 0.0068717, Final residual = 6.13456e-07, No Iterations 11
smoothSolver:  Solving for k, Initial residual = 0.589741, Final residual = 6.35102e-07, No Iterations 20
bounding k, min: 3.71682e-18 max: 2.64293e-16 average: 2.19043e-16
ExecutionTime = 0.221 s  ClockTime = 0 s

Courant Number mean: 0.00195789 max: 0.00374102
Interface Courant Number mean: 0 max: 0
deltaT = 0.0106757
Time = 0.0463432

smoothSolver:  Solving for alpha.water, Initial residual = 5.11032e-08, Final residual = 5.32204e-12, No Iterations 1
Phase-1 volume fraction = 0.5  Min(alpha.water) = 0  Max(alpha.water) = 1.00001
MULES: Correcting alpha.water
MULES: Correcting alpha.water
Phase-1 volume fraction = 0.5  Min(alpha.water) = 0  Max(alpha.water) = 1.00001
DICPCG:  Solving for p_rgh, Initial residual = 1.23225e-05, Final residual = 4.51025e-07, No Iterations 2
time step continuity errors : sum local = 4.56594e-07, global = -1.61437e-20, cumulative = -3.10674e-17
DICPCG:  Solving for p_rgh, Initial residual = 9.29392e-07, Final residual = 5.56115e-08, No Iterations 71
time step continuity errors : sum local = 4.66068e-08, global = -1.37466e-19, cumulative = -3.12049e-17
DICPCG:  Solving for p_rgh, Initial residual = 5.04601e-07, Final residual = 6.82957e-08, No Iterations 11
time step continuity errors : sum local = 8.41416e-08, global = -3.38949e-20, cumulative = -3.12388e-17
smoothSolver:  Solving for omega, Initial residual = 0.00352193, Final residual = 8.87007e-07, No Iterations 11
smoothSolver:  Solving for k, Initial residual = 0.817183, Final residual = 9.78132e-07, No Iterations 22
bounding k, min: 3.04717e-18 max: 2.08238e-16 average: 1.77328e-16
ExecutionTime = 0.221 s  ClockTime = 0 s

Courant Number mean: 0.00289158 max: 0.00555615
Interface Courant Number mean: 0 max: 0
deltaT = 0.012769
Time = 0.0591122

smoothSolver:  Solving for alpha.water, Initial residual = 8.70485e-08, Final residual = 4.2216e-12, No Iterations 1
Phase-1 volume fraction = 0.5  Min(alpha.water) = 7.55884e-318  Max(alpha.water) = 1
MULES: Correcting alpha.water
MULES: Correcting alpha.water
Phase-1 volume fraction = 0.5  Min(alpha.water) = 7.55884e-318  Max(alpha.water) = 1
DICPCG:  Solving for p_rgh, Initial residual = 1.36641e-05, Final residual = 4.98806e-07, No Iterations 2
time step continuity errors : sum local = 5.46923e-07, global = 3.41788e-20, cumulative = -3.12046e-17
DICPCG:  Solving for p_rgh, Initial residual = 9.07091e-07, Final residual = 6.86368e-08, No Iterations 66
time step continuity errors : sum local = 7.0221e-08, global = -3.47245e-20, cumulative = -3.12393e-17
DICPCG:  Solving for p_rgh, Initial residual = 4.89608e-07, Final residual = 9.25363e-08, No Iterations 16
time step continuity errors : sum local = 1.30092e-07, global = 8.0166e-21, cumulative = -3.12313e-17
smoothSolver:  Solving for omega, Initial residual = 0.00255868, Final residual = 7.64495e-07, No Iterations 12
smoothSolver:  Solving for k, Initial residual = 0.993942, Final residual = 6.97338e-07, No Iterations 26
bounding k, min: 2.61059e-18 max: 1.78016e-16 average: 1.62169e-16
ExecutionTime = 0.236 s  ClockTime = 0 s

Courant Number mean: 0.00414345 max: 0.00800213
Interface Courant Number mean: 0 max: 0
deltaT = 0.0152826
Time = 0.0743947

smoothSolver:  Solving for alpha.water, Initial residual = 1.24366e-07, Final residual = 1.02174e-11, No Iterations 1
Phase-1 volume fraction = 0.5  Min(alpha.water) = 7.99165e-315  Max(alpha.water) = 1.00002
MULES: Correcting alpha.water
MULES: Correcting alpha.water
Phase-1 volume fraction = 0.5  Min(alpha.water) = 7.99165e-315  Max(alpha.water) = 1.00002
DICPCG:  Solving for p_rgh, Initial residual = 2.13756e-05, Final residual = 7.30327e-07, No Iterations 2
time step continuity errors : sum local = 1.0552e-06, global = -1.01572e-17, cumulative = -4.13885e-17
DICPCG:  Solving for p_rgh, Initial residual = 1.48828e-06, Final residual = 6.1022e-08, No Iterations 68
time step continuity errors : sum local = 7.70594e-08, global = -1.03409e-17, cumulative = -5.17295e-17
DICPCG:  Solving for p_rgh, Initial residual = 7.82877e-07, Final residual = 8.19387e-08, No Iterations 66
time step continuity errors : sum local = 1.01045e-07, global = -1.01439e-17, cumulative = -6.18734e-17
smoothSolver:  Solving for omega, Initial residual = 0.00157199, Final residual = 6.84197e-07, No Iterations 13
smoothSolver:  Solving for k, Initial residual = 0.993935, Final residual = 8.46611e-07, No Iterations 29
bounding k, min: 2.16275e-18 max: 1.8039e-16 average: 1.621e-16
ExecutionTime = 0.236 s  ClockTime = 0 s

Courant Number mean: 0.00580286 max: 0.0112539
Interface Courant Number mean: 0 max: 0
deltaT = 0.0183391
Time = 0.0927338

smoothSolver:  Solving for alpha.water, Initial residual = 8.82129e-08, Final residual = 2.51846e-11, No Iterations 1
Phase-1 volume fraction = 0.5  Min(alpha.water) = 2.2978e-312  Max(alpha.water) = 1.00002
MULES: Correcting alpha.water
MULES: Correcting alpha.water
Phase-1 volume fraction = 0.5  Min(alpha.water) = 2.2978e-312  Max(alpha.water) = 1.00002
DICPCG:  Solving for p_rgh, Initial residual = 2.1769e-05, Final residual = 7.14657e-07, No Iterations 2
time step continuity errors : sum local = 1.08163e-06, global = -1.23329e-17, cumulative = -7.42063e-17
DICPCG:  Solving for p_rgh, Initial residual = 1.30208e-06, Final residual = 9.00902e-08, No Iterations 16
time step continuity errors : sum local = 1.63085e-07, global = -1.85933e-17, cumulative = -9.27996e-17
DICPCG:  Solving for p_rgh, Initial residual = 7.25244e-07, Final residual = 9.60282e-08, No Iterations 8
time step continuity errors : sum local = 1.77658e-07, global = -1.22532e-17, cumulative = -1.05053e-16
smoothSolver:  Solving for omega, Initial residual = 0.00114925, Final residual = 9.20191e-07, No Iterations 13
smoothSolver:  Solving for k, Initial residual = 0.993767, Final residual = 8.87145e-07, No Iterations 33
bounding k, min: 1.82961e-18 max: 1.82302e-16 average: 1.62167e-16
ExecutionTime = 0.252 s  ClockTime = 0 s

Courant Number mean: 0.00800752 max: 0.0156047
Interface Courant Number mean: 0 max: 0
deltaT = 0.0219226
Time = 0.114656

smoothSolver:  Solving for alpha.water, Initial residual = 1.8475e-07, Final residual = 4.81548e-11, No Iterations 1
Phase-1 volume fraction = 0.5  Min(alpha.water) = 6.85492e-309  Max(alpha.water) = 1
MULES: Correcting alpha.water
MULES: Correcting alpha.water
Phase-1 volume fraction = 0.5  Min(alpha.water) = 6.85492e-309  Max(alpha.water) = 1
DICPCG:  Solving for p_rgh, Initial residual = 4.14775e-05, Final residual = 1.23421e-06, No Iterations 2
time step continuity errors : sum local = 2.42765e-06, global = -7.69588e-19, cumulative = -1.05822e-16
DICPCG:  Solving for p_rgh, Initial residual = 2.40153e-06, Final residual = 1.14708e-07, No Iterations 68
time step continuity errors : sum local = 2.08068e-07, global = -8.71113e-19, cumulative = -1.06693e-16
DICPCG:  Solving for p_rgh, Initial residual = 1.27968e-06, Final residual = 9.68635e-08, No Iterations 21
time step continuity errors : sum local = 2.58134e-07, global = 7.10355e-19, cumulative = -1.05983e-16
smoothSolver:  Solving for omega, Initial residual = 0.000778747, Final residual = 8.13487e-07, No Iterations 14
smoothSolver:  Solving for k, Initial residual = 0.993767, Final residual = 7.9649e-07, No Iterations 38
bounding k, min: 1.52466e-18 max: 1.84193e-16 average: 1.61136e-16
ExecutionTime = 0.268 s  ClockTime = 0 s

Courant Number mean: 0.010854 max: 0.0212542
Interface Courant Number mean: 0 max: 0
deltaT = 0.0261853
Time = 0.140842

smoothSolver:  Solving for alpha.water, Initial residual = 4.04787e-07, Final residual = 2.33525e-10, No Iterations 1
Phase-1 volume fraction = 0.5  Min(alpha.water) = 4.6549e-305  Max(alpha.water) = 1.00008
MULES: Correcting alpha.water
MULES: Correcting alpha.water
Phase-1 volume fraction = 0.5  Min(alpha.water) = 4.6549e-305  Max(alpha.water) = 1.00008
DICPCG:  Solving for p_rgh, Initial residual = 7.46809e-05, Final residual = 2.94569e-06, No Iterations 2
time step continuity errors : sum local = 7.51394e-06, global = -2.65672e-17, cumulative = -1.3255e-16
DICPCG:  Solving for p_rgh, Initial residual = 6.21846e-06, Final residual = 2.70523e-07, No Iterations 68
time step continuity errors : sum local = 5.84896e-07, global = -2.69626e-17, cumulative = -1.59513e-16
DICPCG:  Solving for p_rgh, Initial residual = 3.33174e-06, Final residual = 5.56122e-08, No Iterations 74
time step continuity errors : sum local = 1.21049e-07, global = 8.54096e-18, cumulative = -1.50972e-16
smoothSolver:  Solving for omega, Initial residual = 0.000582956, Final residual = 9.91213e-07, No Iterations 14
smoothSolver:  Solving for k, Initial residual = 0.993665, Final residual = 8.96117e-07, No Iterations 43
bounding k, min: 1.2893e-18 max: 1.86117e-16 average: 1.6035e-16
ExecutionTime = 0.268 s  ClockTime = 0 s

Courant Number mean: 0.0145067 max: 0.0285442
Interface Courant Number mean: 0 max: 0
deltaT = 0.030986
Time = 0.171828

smoothSolver:  Solving for alpha.water, Initial residual = 2.17324e-07, Final residual = 1.26647e-10, No Iterations 1
Phase-1 volume fraction = 0.5  Min(alpha.water) = 1.39373e-301  Max(alpha.water) = 1.00008
MULES: Correcting alpha.water
MULES: Correcting alpha.water
Phase-1 volume fraction = 0.5  Min(alpha.water) = 1.39373e-301  Max(alpha.water) = 1.00008
DICPCG:  Solving for p_rgh, Initial residual = 4.37905e-05, Final residual = 1.89146e-06, No Iterations 2
time step continuity errors : sum local = 4.94129e-06, global = 2.49117e-18, cumulative = -1.48481e-16
DICPCG:  Solving for p_rgh, Initial residual = 3.48459e-06, Final residual = 1.61573e-07, No Iterations 29
time step continuity errors : sum local = 5.03935e-07, global = 2.46708e-18, cumulative = -1.46014e-16
DICPCG:  Solving for p_rgh, Initial residual = 1.88182e-06, Final residual = 7.00334e-08, No Iterations 66
time step continuity errors : sum local = 1.81248e-07, global = 2.04584e-18, cumulative = -1.43968e-16
smoothSolver:  Solving for omega, Initial residual = 0.000420347, Final residual = 8.24021e-07, No Iterations 15
smoothSolver:  Solving for k, Initial residual = 0.993669, Final residual = 8.74422e-07, No Iterations 49
bounding k, min: 1.08746e-18 max: 1.88555e-16 average: 1.58891e-16
ExecutionTime = 0.283 s  ClockTime = 0 s

Courant Number mean: 0.019031 max: 0.0375903
Interface Courant Number mean: 0 max: 0
deltaT = 0.0365634
Time = 0.208391

smoothSolver:  Solving for alpha.water, Initial residual = 4.10216e-07, Final residual = 1.53436e-10, No Iterations 1
Phase-1 volume fraction = 0.5  Min(alpha.water) = 5.20663e-301  Max(alpha.water) = 1.00008
MULES: Correcting alpha.water
MULES: Correcting alpha.water
Phase-1 volume fraction = 0.5  Min(alpha.water) = -8.217e-77  Max(alpha.water) = 1.00008
DICPCG:  Solving for p_rgh, Initial residual = 8.76948e-05, Final residual = 3.55572e-06, No Iterations 2
time step continuity errors : sum local = 1.09831e-05, global = -2.47514e-17, cumulative = -1.68719e-16
DICPCG:  Solving for p_rgh, Initial residual = 6.45481e-06, Final residual = 2.47163e-07, No Iterations 16
time step continuity errors : sum local = 9.15609e-07, global = -2.54275e-17, cumulative = -1.94147e-16
DICPCG:  Solving for p_rgh, Initial residual = 3.43996e-06, Final residual = 9.71583e-08, No Iterations 68
time step continuity errors : sum local = 3.0439e-07, global = -2.46007e-17, cumulative = -2.18747e-16
smoothSolver:  Solving for omega, Initial residual = 0.000322752, Final residual = 9.15788e-07, No Iterations 15
smoothSolver:  Solving for k, Initial residual = 0.993605, Final residual = 8.35483e-07, No Iterations 56
bounding k, min: 9.27988e-19 max: 1.91479e-16 average: 1.57713e-16
ExecutionTime = 0.299 s  ClockTime = 0 s

Courant Number mean: 0.024683 max: 0.048936
Interface Courant Number mean: 0 max: 0
deltaT = 0.0436978
Time = 0.252089

smoothSolver:  Solving for alpha.water, Initial residual = 7.71576e-07, Final residual = 1.93588e-10, No Iterations 1
Phase-1 volume fraction = 0.5  Min(alpha.water) = 2.02039e-299  Max(alpha.water) = 1.00009
MULES: Correcting alpha.water
MULES: Correcting alpha.water
Phase-1 volume fraction = 0.5  Min(alpha.water) = -3.46026e-70  Max(alpha.water) = 1.00009
DICPCG:  Solving for p_rgh, Initial residual = 0.000156173, Final residual = 5.9886e-06, No Iterations 2
time step continuity errors : sum local = 2.20502e-05, global = 5.86006e-17, cumulative = -1.60147e-16
DICPCG:  Solving for p_rgh, Initial residual = 1.07931e-05, Final residual = 4.19838e-07, No Iterations 16
time step continuity errors : sum local = 1.74343e-06, global = -1.30419e-18, cumulative = -1.61451e-16
DICPCG:  Solving for p_rgh, Initial residual = 5.78189e-06, Final residual = 5.29111e-08, No Iterations 74
time step continuity errors : sum local = 1.98196e-07, global = 4.94497e-19, cumulative = -1.60957e-16
smoothSolver:  Solving for omega, Initial residual = 0.000242929, Final residual = 8.70076e-07, No Iterations 15
smoothSolver:  Solving for k, Initial residual = 0.99361, Final residual = 8.77349e-07, No Iterations 64
bounding k, min: 7.75925e-19 max: 1.94814e-16 average: 1.55286e-16
ExecutionTime = 0.299 s  ClockTime = 0 s

Courant Number mean: 0.0321618 max: 0.0640073
Interface Courant Number mean: 0 max: 0
deltaT = 0.0514091
Time = 0.303498

smoothSolver:  Solving for alpha.water, Initial residual = 6.03112e-07, Final residual = 2.5533e-10, No Iterations 1
Phase-1 volume fraction = 0.5  Min(alpha.water) = -5.60562e-75  Max(alpha.water) = 1.00009
MULES: Correcting alpha.water
MULES: Correcting alpha.water
Phase-1 volume fraction = 0.5  Min(alpha.water) = -5.60562e-75  Max(alpha.water) = 1.00009
DICPCG:  Solving for p_rgh, Initial residual = 0.0001274, Final residual = 5.63075e-06, No Iterations 2
time step continuity errors : sum local = 2.44574e-05, global = -1.68253e-17, cumulative = -1.77782e-16
DICPCG:  Solving for p_rgh, Initial residual = 1.02715e-05, Final residual = 4.04079e-07, No Iterations 13
time step continuity errors : sum local = 2.1481e-06, global = -1.7046e-17, cumulative = -1.94828e-16
DICPCG:  Solving for p_rgh, Initial residual = 5.37223e-06, Final residual = 8.96902e-08, No Iterations 68
time step continuity errors : sum local = 3.91081e-07, global = -1.7406e-17, cumulative = -2.12234e-16
smoothSolver:  Solving for omega, Initial residual = 0.000191095, Final residual = 9.08587e-07, No Iterations 15
smoothSolver:  Solving for k, Initial residual = 0.993568, Final residual = 9.73533e-07, No Iterations 72
bounding k, min: 6.62922e-19 max: 1.9959e-16 average: 1.53612e-16
ExecutionTime = 0.315 s  ClockTime = 0 s

Courant Number mean: 0.0409963 max: 0.0819326
Interface Courant Number mean: 0 max: 0
deltaT = 0.0605894
Time = 0.364087

smoothSolver:  Solving for alpha.water, Initial residual = 7.69674e-07, Final residual = 1.5589e-10, No Iterations 1
Phase-1 volume fraction = 0.5  Min(alpha.water) = -9.17758e-80  Max(alpha.water) = 1.00009
MULES: Correcting alpha.water
MULES: Correcting alpha.water
Phase-1 volume fraction = 0.5  Min(alpha.water) = -9.09031e-80  Max(alpha.water) = 1.00009
DICPCG:  Solving for p_rgh, Initial residual = 0.000166332, Final residual = 6.34595e-06, No Iterations 2
time step continuity errors : sum local = 3.27559e-05, global = 1.34333e-18, cumulative = -2.10891e-16
DICPCG:  Solving for p_rgh, Initial residual = 1.16304e-05, Final residual = 5.11845e-07, No Iterations 13
time step continuity errors : sum local = 3.04862e-06, global = 1.75688e-19, cumulative = -2.10715e-16
DICPCG:  Solving for p_rgh, Initial residual = 6.07027e-06, Final residual = 9.7194e-08, No Iterations 68
time step continuity errors : sum local = 5.01542e-07, global = 7.93132e-20, cumulative = -2.10636e-16
smoothSolver:  Solving for omega, Initial residual = 0.00014873, Final residual = 9.762e-07, No Iterations 13
smoothSolver:  Solving for k, Initial residual = 0.993577, Final residual = 9.5108e-07, No Iterations 82
bounding k, min: 5.62253e-19 max: 2.05389e-16 average: 1.51033e-16
ExecutionTime = 0.33 s  ClockTime = 0 s

Courant Number mean: 0.052064 max: 0.104462
Interface Courant Number mean: 0 max: 0
deltaT = 0.0711266
Time = 0.435214

smoothSolver:  Solving for alpha.water, Initial residual = 1.08697e-06, Final residual = 2.78602e-09, No Iterations 1
Phase-1 volume fraction = 0.5  Min(alpha.water) = -7.48055e-80  Max(alpha.water) = 1.00008
MULES: Correcting alpha.water
MULES: Correcting alpha.water
Phase-1 volume fraction = 0.5  Min(alpha.water) = -7.48001e-80  Max(alpha.water) = 1.00008
DICPCG:  Solving for p_rgh, Initial residual = 0.000202904, Final residual = 8.47767e-06, No Iterations 2
time step continuity errors : sum local = 5.13619e-05, global = -2.3912e-17, cumulative = -2.34548e-16
DICPCG:  Solving for p_rgh, Initial residual = 1.49498e-05, Final residual = 5.66533e-07, No Iterations 13
time step continuity errors : sum local = 4.00026e-06, global = -4.67423e-17, cumulative = -2.8129e-16
DICPCG:  Solving for p_rgh, Initial residual = 7.98307e-06, Final residual = 5.72545e-08, No Iterations 71
time step continuity errors : sum local = 3.46728e-07, global = -2.50608e-17, cumulative = -3.06351e-16
smoothSolver:  Solving for omega, Initial residual = 0.000119451, Final residual = 9.69125e-07, No Iterations 13
smoothSolver:  Solving for k, Initial residual = 0.99355, Final residual = 9.39337e-07, No Iterations 93
bounding k, min: 4.80835e-19 max: 2.12703e-16 average: 1.48883e-16
ExecutionTime = 0.33 s  ClockTime = 0 s

Courant Number mean: 0.0655481 max: 0.131994
Interface Courant Number mean: 0 max: 0
deltaT = 0.0823572
Time = 0.517571

smoothSolver:  Solving for alpha.water, Initial residual = 1.97778e-06, Final residual = 6.82657e-09, No Iterations 1
Phase-1 volume fraction = 0.5  Min(alpha.water) = 1.14186e-265  Max(alpha.water) = 1.00008
MULES: Correcting alpha.water
MULES: Correcting alpha.water
Phase-1 volume fraction = 0.5  Min(alpha.water) = -2.78409e-76  Max(alpha.water) = 1.00008
DICPCG:  Solving for p_rgh, Initial residual = 0.000355894, Final residual = 1.57823e-05, No Iterations 2
time step continuity errors : sum local = 0.000111062, global = -2.22941e-16, cumulative = -5.29292e-16
DICPCG:  Solving for p_rgh, Initial residual = 2.85536e-05, Final residual = 1.30869e-06, No Iterations 13
time step continuity errors : sum local = 1.02063e-05, global = -2.22108e-16, cumulative = -7.514e-16
DICPCG:  Solving for p_rgh, Initial residual = 1.56858e-05, Final residual = 9.33693e-08, No Iterations 71
time step continuity errors : sum local = 6.59594e-07, global = 2.23158e-16, cumulative = -5.28242e-16
smoothSolver:  Solving for omega, Initial residual = 9.54231e-05, Final residual = 9.53583e-07, No Iterations 11
smoothSolver:  Solving for k, Initial residual = 0.99356, Final residual = 9.44294e-07, No Iterations 104
bounding k, min: 4.15142e-19 max: 2.18328e-16 average: 1.46265e-16
ExecutionTime = 0.346 s  ClockTime = 0 s

Courant Number mean: 0.081001 max: 0.163624
Interface Courant Number mean: 0 max: 0
deltaT = 0.0988286
Time = 0.6164

smoothSolver:  Solving for alpha.water, Initial residual = 2.51054e-06, Final residual = 5.77915e-09, No Iterations 1
Phase-1 volume fraction = 0.5  Min(alpha.water) = -1.57472e-121  Max(alpha.water) = 1.00008
MULES: Correcting alpha.water
MULES: Correcting alpha.water
Phase-1 volume fraction = 0.5  Min(alpha.water) = -4.98289e-61  Max(alpha.water) = 1.00008
DICPCG:  Solving for p_rgh, Initial residual = 0.000457799, Final residual = 2.05574e-05, No Iterations 2
time step continuity errors : sum local = 0.000173115, global = 3.82228e-17, cumulative = -4.9002e-16
DICPCG:  Solving for p_rgh, Initial residual = 3.71189e-05, Final residual = 1.35336e-06, No Iterations 16
time step continuity errors : sum local = 1.34526e-05, global = 3.79168e-17, cumulative = -4.52103e-16
DICPCG:  Solving for p_rgh, Initial residual = 2.00084e-05, Final residual = 4.90111e-08, No Iterations 79
time step continuity errors : sum local = 4.15081e-07, global = 7.12742e-17, cumulative = -3.80829e-16
smoothSolver:  Solving for omega, Initial residual = 7.7932e-05, Final residual = 9.10109e-07, No Iterations 11
smoothSolver:  Solving for k, Initial residual = 0.993542, Final residual = 9.86565e-07, No Iterations 119
bounding k, min: 3.4709e-19 max: 2.20802e-16 average: 1.42372e-16
ExecutionTime = 0.361 s  ClockTime = 0 s

Courant Number mean: 0.103393 max: 0.209727
Interface Courant Number mean: 0 max: 0
deltaT = 0.1153
Time = 0.7317

smoothSolver:  Solving for alpha.water, Initial residual = 4.19694e-06, Final residual = 7.24439e-09, No Iterations 1
Phase-1 volume fraction = 0.5  Min(alpha.water) = -4.13314e-64  Max(alpha.water) = 1.00007
MULES: Correcting alpha.water
MULES: Correcting alpha.water
Phase-1 volume fraction = 0.5  Min(alpha.water) = -1.17193e-37  Max(alpha.water) = 1.00007
DICPCG:  Solving for p_rgh, Initial residual = 0.000709676, Final residual = 3.26475e-05, No Iterations 2
time step continuity errors : sum local = 0.000322639, global = -7.80052e-17, cumulative = -4.58834e-16
DICPCG:  Solving for p_rgh, Initial residual = 5.97707e-05, Final residual = 2.71045e-06, No Iterations 9
time step continuity errors : sum local = 2.95611e-05, global = -7.84212e-17, cumulative = -5.37255e-16
DICPCG:  Solving for p_rgh, Initial residual = 3.21355e-05, Final residual = 9.75649e-08, No Iterations 79
time step continuity errors : sum local = 9.66525e-07, global = -7.71641e-17, cumulative = -6.14419e-16
smoothSolver:  Solving for omega, Initial residual = 6.35469e-05, Final residual = 8.98854e-07, No Iterations 9
smoothSolver:  Solving for k, Initial residual = 0.993549, Final residual = 9.61886e-07, No Iterations 134
bounding k, min: 2.97483e-19 max: 2.22399e-16 average: 1.38599e-16
ExecutionTime = 0.361 s  ClockTime = 0 s

Courant Number mean: 0.127785 max: 0.260018
Interface Courant Number mean: 0 max: 0
deltaT = 0.12683
Time = 0.85853

smoothSolver:  Solving for alpha.water, Initial residual = 4.37548e-06, Final residual = 6.2585e-09, No Iterations 1
Phase-1 volume fraction = 0.5  Min(alpha.water) = -3.21294e-64  Max(alpha.water) = 1.00006
MULES: Correcting alpha.water
MULES: Correcting alpha.water
Phase-1 volume fraction = 0.5  Min(alpha.water) = -2.14706e-38  Max(alpha.water) = 1.00006
DICPCG:  Solving for p_rgh, Initial residual = 0.000818291, Final residual = 3.38144e-05, No Iterations 2
time step continuity errors : sum local = 0.00036852, global = -8.60142e-17, cumulative = -7.00433e-16
DICPCG:  Solving for p_rgh, Initial residual = 5.99481e-05, Final residual = 2.44364e-06, No Iterations 16
time step continuity errors : sum local = 3.33333e-05, global = -8.40707e-17, cumulative = -7.84504e-16
DICPCG:  Solving for p_rgh, Initial residual = 3.27117e-05, Final residual = 9.2137e-08, No Iterations 79
time step continuity errors : sum local = 1.01402e-06, global = -8.70865e-17, cumulative = -8.71591e-16
smoothSolver:  Solving for omega, Initial residual = 5.26308e-05, Final residual = 9.82253e-07, No Iterations 7
smoothSolver:  Solving for k, Initial residual = 0.993432, Final residual = 9.54906e-07, No Iterations 144
bounding k, min: 2.70965e-19 max: 2.24629e-16 average: 1.36748e-16
ExecutionTime = 0.377 s  ClockTime = 0 s

Courant Number mean: 0.148472 max: 0.303395
Interface Courant Number mean: 0 max: 0
deltaT = 0.142684
Time = 1.00121

smoothSolver:  Solving for alpha.water, Initial residual = 7.14267e-06, Final residual = 1.37592e-11, No Iterations 2
Phase-1 volume fraction = 0.5  Min(alpha.water) = 6.10923e-231  Max(alpha.water) = 1.00008
MULES: Correcting alpha.water
MULES: Correcting alpha.water
Phase-1 volume fraction = 0.5  Min(alpha.water) = -4.69364e-75  Max(alpha.water) = 1.00008
DICPCG:  Solving for p_rgh, Initial residual = 0.00122333, Final residual = 5.77529e-05, No Iterations 2
time step continuity errors : sum local = 0.000707596, global = 8.26177e-20, cumulative = -8.71508e-16
DICPCG:  Solving for p_rgh, Initial residual = 0.000105513, Final residual = 3.65208e-06, No Iterations 13
time step continuity errors : sum local = 5.43793e-05, global = -4.8442e-17, cumulative = -9.1995e-16
DICPCG:  Solving for p_rgh, Initial residual = 5.55147e-05, Final residual = 8.51841e-08, No Iterations 89
time step continuity errors : sum local = 1.04531e-06, global = -3.56346e-19, cumulative = -9.20306e-16
smoothSolver:  Solving for omega, Initial residual = 4.33215e-05, Final residual = 9.34081e-07, No Iterations 6
smoothSolver:  Solving for k, Initial residual = 0.992819, Final residual = 9.97908e-07, No Iterations 156
bounding k, min: 2.40825e-19 max: 2.272e-16 average: 1.33827e-16
ExecutionTime = 0.393 s  ClockTime = 0 s

Courant Number mean: 0.175804 max: 0.360811
Interface Courant Number mean: 0 max: 0
deltaT = 0.166464
Time = 1.16768

smoothSolver:  Solving for alpha.water, Initial residual = 6.86001e-06, Final residual = 3.27906e-11, No Iterations 2
Phase-1 volume fraction = 0.5  Min(alpha.water) = 1.00937e-209  Max(alpha.water) = 1.00009
MULES: Correcting alpha.water
MULES: Correcting alpha.water
Phase-1 volume fraction = 0.5  Min(alpha.water) = -4.13515e-52  Max(alpha.water) = 1.00009
DICPCG:  Solving for p_rgh, Initial residual = 0.00120298, Final residual = 5.46549e-05, No Iterations 2
time step continuity errors : sum local = 0.000786326, global = -1.14123e-16, cumulative = -1.03443e-15
DICPCG:  Solving for p_rgh, Initial residual = 9.98772e-05, Final residual = 4.93606e-06, No Iterations 13
time step continuity errors : sum local = 8.58495e-05, global = -1.13438e-16, cumulative = -1.14787e-15
DICPCG:  Solving for p_rgh, Initial residual = 5.44258e-05, Final residual = 9.47518e-08, No Iterations 81
time step continuity errors : sum local = 1.3729e-06, global = -5.64164e-16, cumulative = -1.71203e-15
smoothSolver:  Solving for omega, Initial residual = 3.59285e-05, Final residual = 9.52126e-07, No Iterations 5
smoothSolver:  Solving for k, Initial residual = 0.991728, Final residual = 9.83959e-07, No Iterations 174
bounding k, min: 2.06814e-19 max: 2.29935e-16 average: 1.29697e-16
ExecutionTime = 0.393 s  ClockTime = 0 s

Courant Number mean: 0.215467 max: 0.443022
Interface Courant Number mean: 0 max: 0
deltaT = 0.166464
Time = 1.33414

smoothSolver:  Solving for alpha.water, Initial residual = 9.10978e-06, Final residual = 1.11892e-10, No Iterations 2
Phase-1 volume fraction = 0.5  Min(alpha.water) = 2.38504e-207  Max(alpha.water) = 1.00007
MULES: Correcting alpha.water
MULES: Correcting alpha.water
Phase-1 volume fraction = 0.5  Min(alpha.water) = -4.12994e-52  Max(alpha.water) = 1.00007
DICPCG:  Solving for p_rgh, Initial residual = 0.00153077, Final residual = 7.53423e-05, No Iterations 2
time step continuity errors : sum local = 0.00108364, global = -5.69787e-17, cumulative = -1.76901e-15
DICPCG:  Solving for p_rgh, Initial residual = 0.000136533, Final residual = 5.9842e-06, No Iterations 9
time step continuity errors : sum local = 0.000105173, global = -5.92851e-17, cumulative = -1.82829e-15
DICPCG:  Solving for p_rgh, Initial residual = 7.24331e-05, Final residual = 2.54901e-08, No Iterations 97
time step continuity errors : sum local = 3.63792e-07, global = 3.94251e-16, cumulative = -1.43404e-15
smoothSolver:  Solving for omega, Initial residual = 2.96823e-05, Final residual = 9.63212e-07, No Iterations 4
smoothSolver:  Solving for k, Initial residual = 0.990478, Final residual = 9.77377e-07, No Iterations 174
bounding k, min: 2.06671e-19 max: 2.34521e-16 average: 1.30753e-16
ExecutionTime = 0.416 s  ClockTime = 0 s

Courant Number mean: 0.225684 max: 0.465731
Interface Courant Number mean: 0 max: 0
deltaT = 0.166464
Time = 1.50061

smoothSolver:  Solving for alpha.water, Initial residual = 9.56431e-06, Final residual = 3.98309e-11, No Iterations 2
Phase-1 volume fraction = 0.5  Min(alpha.water) = 8.69361e-198  Max(alpha.water) = 1.00007
MULES: Correcting alpha.water
MULES: Correcting alpha.water
Phase-1 volume fraction = 0.5  Min(alpha.water) = 8.69361e-198  Max(alpha.water) = 1.00007
DICPCG:  Solving for p_rgh, Initial residual = 0.00149087, Final residual = 7.10872e-05, No Iterations 2
time step continuity errors : sum local = 0.00102342, global = -1.95528e-18, cumulative = -1.436e-15
DICPCG:  Solving for p_rgh, Initial residual = 0.000131077, Final residual = 5.96709e-06, No Iterations 16
time step continuity errors : sum local = 0.000115033, global = 4.01728e-18, cumulative = -1.43198e-15
DICPCG:  Solving for p_rgh, Initial residual = 7.22921e-05, Final residual = 1.9993e-08, No Iterations 97
time step continuity errors : sum local = 2.85426e-07, global = -7.06281e-19, cumulative = -1.43269e-15
smoothSolver:  Solving for omega, Initial residual = 2.43808e-05, Final residual = 7.65925e-07, No Iterations 4
smoothSolver:  Solving for k, Initial residual = 0.988112, Final residual = 9.66285e-07, No Iterations 174
bounding k, min: 2.06788e-19 max: 2.40305e-16 average: 1.31975e-16
ExecutionTime = 0.428 s  ClockTime = 0 s

Courant Number mean: 0.236296 max: 0.489551
Interface Courant Number mean: 0 max: 0
deltaT = 0.166464
Time = 1.66707

smoothSolver:  Solving for alpha.water, Initial residual = 1.55752e-05, Final residual = 1.58171e-09, No Iterations 2
Phase-1 volume fraction = 0.5  Min(alpha.water) = 5.14917e-195  Max(alpha.water) = 1.00007
MULES: Correcting alpha.water
MULES: Correcting alpha.water
Phase-1 volume fraction = 0.5  Min(alpha.water) = -5.35274e-50  Max(alpha.water) = 1.00007
DICPCG:  Solving for p_rgh, Initial residual = 0.00253536, Final residual = 2.99894e-05, No Iterations 4
time step continuity errors : sum local = 0.000447109, global = -1.12556e-16, cumulative = -1.54524e-15
DICPCG:  Solving for p_rgh, Initial residual = 6.06057e-05, Final residual = 2.89579e-06, No Iterations 71
time step continuity errors : sum local = 4.12201e-05, global = -1.12019e-16, cumulative = -1.65726e-15
DICPCG:  Solving for p_rgh, Initial residual = 3.36233e-05, Final residual = 3.17803e-08, No Iterations 97
time step continuity errors : sum local = 4.50368e-07, global = -1.1746e-16, cumulative = -1.77472e-15
smoothSolver:  Solving for omega, Initial residual = 2.00374e-05, Final residual = 8.53188e-07, No Iterations 3
smoothSolver:  Solving for k, Initial residual = 0.984852, Final residual = 9.94172e-07, No Iterations 173
bounding k, min: 2.06697e-19 max: 2.46912e-16 average: 1.33185e-16
ExecutionTime = 0.44 s  ClockTime = 0 s

Courant Number mean: 0.246141 max: 0.510227
Interface Courant Number mean: 9.55179e-05 max: 0.0916972
deltaT = 0.166464
Time = 1.83354

smoothSolver:  Solving for alpha.water, Initial residual = 1.50091e-05, Final residual = 1.82207e-10, No Iterations 2
Phase-1 volume fraction = 0.5  Min(alpha.water) = 6.56981e-191  Max(alpha.water) = 1.00007
MULES: Correcting alpha.water
MULES: Correcting alpha.water
Phase-1 volume fraction = 0.5  Min(alpha.water) = -7.98395e-97  Max(alpha.water) = 1.00007
DICPCG:  Solving for p_rgh, Initial residual = 0.0023694, Final residual = 2.80992e-05, No Iterations 4
time step continuity errors : sum local = 0.000397464, global = -5.68186e-17, cumulative = -1.83154e-15
DICPCG:  Solving for p_rgh, Initial residual = 5.31474e-05, Final residual = 2.56674e-06, No Iterations 13
time step continuity errors : sum local = 3.80612e-05, global = -5.77203e-17, cumulative = -1.88926e-15
DICPCG:  Solving for p_rgh, Initial residual = 2.69889e-05, Final residual = 4.73185e-08, No Iterations 89
time step continuity errors : sum local = 6.72537e-07, global = -5.58025e-17, cumulative = -1.94506e-15
smoothSolver:  Solving for omega, Initial residual = 1.62088e-05, Final residual = 6.5552e-07, No Iterations 3
smoothSolver:  Solving for k, Initial residual = 0.98028, Final residual = 9.71476e-07, No Iterations 173
bounding k, min: 2.0677e-19 max: 2.54267e-16 average: 1.34508e-16
ExecutionTime = 0.451 s  ClockTime = 0 s

Courant Number mean: 0.256151 max: 0.532823
Interface Courant Number mean: 0.000318411 max: 0.111683
deltaT = 0.166464
Time = 2

smoothSolver:  Solving for alpha.water, Initial residual = 1.60241e-05, Final residual = 1.35269e-10, No Iterations 2
Phase-1 volume fraction = 0.5  Min(alpha.water) = 1.31717e-190  Max(alpha.water) = 1.00007
MULES: Correcting alpha.water
MULES: Correcting alpha.water
Phase-1 volume fraction = 0.5  Min(alpha.water) = 1.31717e-190  Max(alpha.water) = 1.00007
DICPCG:  Solving for p_rgh, Initial residual = 0.00246724, Final residual = 2.90884e-05, No Iterations 4
time step continuity errors : sum local = 0.00041138, global = -3.63518e-18, cumulative = -1.9487e-15
DICPCG:  Solving for p_rgh, Initial residual = 5.40989e-05, Final residual = 2.53092e-06, No Iterations 16
time step continuity errors : sum local = 3.73997e-05, global = 1.14288e-18, cumulative = -1.94756e-15
DICPCG:  Solving for p_rgh, Initial residual = 2.66173e-05, Final residual = 4.33755e-08, No Iterations 79
time step continuity errors : sum local = 6.17241e-07, global = 1.46949e-18, cumulative = -1.94609e-15
smoothSolver:  Solving for omega, Initial residual = 1.31644e-05, Final residual = 8.62748e-07, No Iterations 2
smoothSolver:  Solving for k, Initial residual = 0.975162, Final residual = 9.91766e-07, No Iterations 172
bounding k, min: 2.06716e-19 max: 2.62413e-16 average: 1.35864e-16
ExecutionTime = 0.495 s  ClockTime = 0 s

yPlus yplus write:
    writing object yPlus
    patch topWall y+ : min = 1.80238e-08, max = 1.80238e-08, average = 1.80238e-08
    patch botWall y+ : min = 1.80238e-08, max = 1.80238e-08, average = 1.80238e-08

--> FOAM Warning :     functionObjects::grad grad1 cannot find required object U of type volScalarField
--> FOAM Warning :     functionObjects::grad grad1 cannot find required object U of type surfaceScalarField
--> FOAM Warning :     functionObjects::grad grad4 cannot find required object R of type volScalarField
--> FOAM Warning :     functionObjects::grad grad4 cannot find required object R of type surfaceScalarField
--> FOAM Warning :     functionObjects::grad grad4 cannot find required object R of type volVectorField
--> FOAM Warning :     functionObjects::grad grad4 cannot find required object R of type surfaceVectorField
--> FOAM Warning :     functionObjects::grad grad4 failed to execute.
Courant Number mean: 0.266264 max: 0.555276
Interface Courant Number mean: 0.000226832 max: 0.115429
deltaT = 0.181818
Time = 2.18182

smoothSolver:  Solving for alpha.water, Initial residual = 1.93908e-05, Final residual = 1.79621e-10, No Iterations 2
Phase-1 volume fraction = 0.5  Min(alpha.water) = 4.1075e-190  Max(alpha.water) = 1.00007
MULES: Correcting alpha.water
MULES: Correcting alpha.water
Phase-1 volume fraction = 0.5  Min(alpha.water) = 4.1075e-190  Max(alpha.water) = 1.00007
DICPCG:  Solving for p_rgh, Initial residual = 0.00293372, Final residual = 3.49804e-05, No Iterations 4
time step continuity errors : sum local = 0.000539913, global = -6.7654e-17, cumulative = -2.01374e-15
DICPCG:  Solving for p_rgh, Initial residual = 6.3378e-05, Final residual = 2.89603e-06, No Iterations 8
time step continuity errors : sum local = 4.68059e-05, global = -5.81151e-17, cumulative = -2.07186e-15
DICPCG:  Solving for p_rgh, Initial residual = 3.20781e-05, Final residual = 7.74774e-08, No Iterations 89
time step continuity errors : sum local = 1.19234e-06, global = -5.57584e-16, cumulative = -2.62944e-15
smoothSolver:  Solving for omega, Initial residual = 1.02725e-05, Final residual = 6.40344e-07, No Iterations 2
smoothSolver:  Solving for k, Initial residual = 0.968834, Final residual = 9.93383e-07, No Iterations 182
bounding k, min: 1.89404e-19 max: 2.71349e-16 average: 1.3459e-16
ExecutionTime = 0.851 s  ClockTime = 1 s

Courant Number mean: 0.301658 max: 0.631087
Interface Courant Number mean: 0.000255165 max: 0.129733
deltaT = 0.20202
Time = 2.38384

smoothSolver:  Solving for alpha.water, Initial residual = 1.82613e-05, Final residual = 2.88255e-10, No Iterations 2
Phase-1 volume fraction = 0.5  Min(alpha.water) = 9.48958e-190  Max(alpha.water) = 1.00007
MULES: Correcting alpha.water
MULES: Correcting alpha.water
Phase-1 volume fraction = 0.5  Min(alpha.water) = -1.91834e-49  Max(alpha.water) = 1.00007
DICPCG:  Solving for p_rgh, Initial residual = 0.00299964, Final residual = 0.000146358, No Iterations 2
time step continuity errors : sum local = 0.00249848, global = -1.44099e-16, cumulative = -2.77354e-15
DICPCG:  Solving for p_rgh, Initial residual = 0.000274828, Final residual = 8.07079e-06, No Iterations 9
time step continuity errors : sum local = 0.000141956, global = -1.44276e-16, cumulative = -2.91781e-15
DICPCG:  Solving for p_rgh, Initial residual = 0.000144843, Final residual = 4.60555e-08, No Iterations 97
time step continuity errors : sum local = 7.92805e-07, global = -1.42693e-16, cumulative = -3.06051e-15
smoothSolver:  Solving for omega, Initial residual = 8.12877e-06, Final residual = 5.71161e-07, No Iterations 2
smoothSolver:  Solving for k, Initial residual = 0.962067, Final residual = 9.86232e-07, No Iterations 194
bounding k, min: 1.70546e-19 max: 2.81062e-16 average: 1.33088e-16
ExecutionTime = 0.871 s  ClockTime = 1 s

Courant Number mean: 0.347163 max: 0.729474
Interface Courant Number mean: 0.000592394 max: 0.15353
deltaT = 0.20202
Time = 2.58586

smoothSolver:  Solving for alpha.water, Initial residual = 2.20556e-05, Final residual = 2.07527e-10, No Iterations 2
Phase-1 volume fraction = 0.5  Min(alpha.water) = 2.13762e-187  Max(alpha.water) = 1.00007
MULES: Correcting alpha.water
MULES: Correcting alpha.water
Phase-1 volume fraction = 0.5  Min(alpha.water) = -3.1397e-47  Max(alpha.water) = 1.00007
DICPCG:  Solving for p_rgh, Initial residual = 0.00298396, Final residual = 3.7456e-05, No Iterations 4
time step continuity errors : sum local = 0.000637845, global = -1.38714e-16, cumulative = -3.19922e-15
DICPCG:  Solving for p_rgh, Initial residual = 7.46636e-05, Final residual = 2.80836e-06, No Iterations 21
time step continuity errors : sum local = 4.79493e-05, global = -1.36263e-16, cumulative = -3.33548e-15
DICPCG:  Solving for p_rgh, Initial residual = 3.86455e-05, Final residual = 9.50682e-08, No Iterations 92
time step continuity errors : sum local = 1.61886e-06, global = -1.35523e-16, cumulative = -3.47101e-15
smoothSolver:  Solving for omega, Initial residual = 6.46855e-06, Final residual = 9.5436e-07, No Iterations 1
smoothSolver:  Solving for k, Initial residual = 0.953795, Final residual = 9.78207e-07, No Iterations 192
bounding k, min: 1.70565e-19 max: 2.92274e-16 average: 1.35163e-16
ExecutionTime = 0.886 s  ClockTime = 1 s

Courant Number mean: 0.35933 max: 0.757274
Interface Courant Number mean: 0.000774818 max: 0.157775
deltaT = 0.20202
Time = 2.78788

smoothSolver:  Solving for alpha.water, Initial residual = 2.55532e-05, Final residual = 1.97526e-10, No Iterations 2
Phase-1 volume fraction = 0.5  Min(alpha.water) = 6.40471e-187  Max(alpha.water) = 1.00007
MULES: Correcting alpha.water
MULES: Correcting alpha.water
Phase-1 volume fraction = 0.5  Min(alpha.water) = -2.50282e-45  Max(alpha.water) = 1.00007
DICPCG:  Solving for p_rgh, Initial residual = 0.00338185, Final residual = 3.95572e-05, No Iterations 4
time step continuity errors : sum local = 0.000672812, global = -1.44965e-18, cumulative = -3.47246e-15
DICPCG:  Solving for p_rgh, Initial residual = 7.23982e-05, Final residual = 3.35952e-06, No Iterations 16
time step continuity errors : sum local = 6.13055e-05, global = 2.83873e-18, cumulative = -3.46962e-15
DICPCG:  Solving for p_rgh, Initial residual = 3.74014e-05, Final residual = 9.4953e-08, No Iterations 84
time step continuity errors : sum local = 1.61477e-06, global = -5.77249e-18, cumulative = -3.47539e-15
smoothSolver:  Solving for omega, Initial residual = 4.44077e-06, Final residual = 6.58626e-07, No Iterations 1
smoothSolver:  Solving for k, Initial residual = 0.943676, Final residual = 9.70791e-07, No Iterations 190
bounding k, min: 1.70555e-19 max: 3.05203e-16 average: 1.37562e-16
ExecutionTime = 0.899 s  ClockTime = 1 s

Courant Number mean: 0.371114 max: 0.783148
Interface Courant Number mean: 0.000778156 max: 0.163863
deltaT = 0.20202
Time = 2.9899

smoothSolver:  Solving for alpha.water, Initial residual = 2.08023e-05, Final residual = 4.44347e-11, No Iterations 2
Phase-1 volume fraction = 0.5  Min(alpha.water) = 6.3825e-185  Max(alpha.water) = 1.00007
MULES: Correcting alpha.water
MULES: Correcting alpha.water
Phase-1 volume fraction = 0.5  Min(alpha.water) = -3.48153e-44  Max(alpha.water) = 1.00007
DICPCG:  Solving for p_rgh, Initial residual = 0.00264917, Final residual = 3.15475e-05, No Iterations 4
time step continuity errors : sum local = 0.000538301, global = -6.85515e-17, cumulative = -3.54394e-15
DICPCG:  Solving for p_rgh, Initial residual = 5.85754e-05, Final residual = 2.75648e-06, No Iterations 21
time step continuity errors : sum local = 5.05653e-05, global = -6.55042e-17, cumulative = -3.60945e-15
DICPCG:  Solving for p_rgh, Initial residual = 2.96898e-05, Final residual = 8.79446e-08, No Iterations 89
time step continuity errors : sum local = 1.49162e-06, global = -6.22225e-17, cumulative = -3.67167e-15
smoothSolver:  Solving for omega, Initial residual = 3.1832e-06, Final residual = 5.51579e-07, No Iterations 1
smoothSolver:  Solving for k, Initial residual = 0.931574, Final residual = 9.86279e-07, No Iterations 187
bounding k, min: 1.70563e-19 max: 3.19916e-16 average: 1.40303e-16
ExecutionTime = 0.925 s  ClockTime = 1 s

Courant Number mean: 0.383336 max: 0.810727
Interface Courant Number mean: 0.00111525 max: 0.168874
deltaT = 0.20202
Time = 3.19192

smoothSolver:  Solving for alpha.water, Initial residual = 2.39675e-05, Final residual = 5.84637e-10, No Iterations 2
Phase-1 volume fraction = 0.5  Min(alpha.water) = 8.51844e-183  Max(alpha.water) = 1.00007
MULES: Correcting alpha.water
MULES: Correcting alpha.water
Phase-1 volume fraction = 0.5  Min(alpha.water) = -1.88348e-43  Max(alpha.water) = 1.00007
DICPCG:  Solving for p_rgh, Initial residual = 0.00350533, Final residual = 0.000160206, No Iterations 2
time step continuity errors : sum local = 0.00271391, global = 5.46447e-16, cumulative = -3.12522e-15
DICPCG:  Solving for p_rgh, Initial residual = 0.000289657, Final residual = 1.13819e-05, No Iterations 9
time step continuity errors : sum local = 0.000198022, global = -1.22197e-18, cumulative = -3.12644e-15
DICPCG:  Solving for p_rgh, Initial residual = 0.000145934, Final residual = 3.81753e-08, No Iterations 97
time step continuity errors : sum local = 6.4902e-07, global = -5.47186e-16, cumulative = -3.67363e-15
smoothSolver:  Solving for omega, Initial residual = 2.40924e-06, Final residual = 5.17782e-07, No Iterations 1
smoothSolver:  Solving for k, Initial residual = 0.9172, Final residual = 9.99108e-07, No Iterations 184
bounding k, min: 1.70558e-19 max: 3.36524e-16 average: 1.43392e-16
ExecutionTime = 0.939 s  ClockTime = 1 s

Courant Number mean: 0.395495 max: 0.840568
Interface Courant Number mean: 0.00135562 max: 0.173271
deltaT = 0.20202
Time = 3.39394

smoothSolver:  Solving for alpha.water, Initial residual = 2.37593e-05, Final residual = 2.50559e-10, No Iterations 2
Phase-1 volume fraction = 0.5  Min(alpha.water) = 1.11468e-179  Max(alpha.water) = 1.00006
MULES: Correcting alpha.water
MULES: Correcting alpha.water
Phase-1 volume fraction = 0.5  Min(alpha.water) = -3.65429e-42  Max(alpha.water) = 1.00006
DICPCG:  Solving for p_rgh, Initial residual = 0.00345035, Final residual = 0.000167762, No Iterations 2
time step continuity errors : sum local = 0.00283425, global = -5.49618e-16, cumulative = -4.22325e-15
DICPCG:  Solving for p_rgh, Initial residual = 0.000312612, Final residual = 1.13644e-05, No Iterations 9
time step continuity errors : sum local = 0.000195425, global = -1.5635e-18, cumulative = -4.22481e-15
DICPCG:  Solving for p_rgh, Initial residual = 0.000161128, Final residual = 3.22355e-08, No Iterations 97
time step continuity errors : sum local = 5.44652e-07, global = -5.47441e-16, cumulative = -4.77225e-15
smoothSolver:  Solving for omega, Initial residual = 1.82793e-06, Final residual = 4.76549e-07, No Iterations 1
smoothSolver:  Solving for k, Initial residual = 0.900824, Final residual = 9.97189e-07, No Iterations 182
bounding k, min: 1.70563e-19 max: 3.55197e-16 average: 1.46878e-16
ExecutionTime = 0.951 s  ClockTime = 1 s

Courant Number mean: 0.407101 max: 0.867001
Interface Courant Number mean: 0.00176973 max: 0.181212
deltaT = 0.20202
Time = 3.59596

smoothSolver:  Solving for alpha.water, Initial residual = 2.43856e-05, Final residual = 1.64128e-10, No Iterations 2
Phase-1 volume fraction = 0.5  Min(alpha.water) = 7.74674e-174  Max(alpha.water) = 1.00006
MULES: Correcting alpha.water
MULES: Correcting alpha.water
Phase-1 volume fraction = 0.5  Min(alpha.water) = -1.0438e-122  Max(alpha.water) = 1.00006
DICPCG:  Solving for p_rgh, Initial residual = 0.00332726, Final residual = 3.94225e-05, No Iterations 4
time step continuity errors : sum local = 0.000666977, global = -7.03396e-17, cumulative = -4.84259e-15
DICPCG:  Solving for p_rgh, Initial residual = 7.70588e-05, Final residual = 3.84297e-06, No Iterations 16
time step continuity errors : sum local = 7.29589e-05, global = -7.20389e-17, cumulative = -4.91463e-15
DICPCG:  Solving for p_rgh, Initial residual = 3.94308e-05, Final residual = 7.85494e-08, No Iterations 94
time step continuity errors : sum local = 1.32568e-06, global = -7.05681e-17, cumulative = -4.9852e-15
smoothSolver:  Solving for omega, Initial residual = 1.47879e-06, Final residual = 4.78311e-07, No Iterations 1
smoothSolver:  Solving for k, Initial residual = 0.882211, Final residual = 9.92059e-07, No Iterations 183
bounding k, min: 1.70561e-19 max: 3.76239e-16 average: 1.50824e-16
ExecutionTime = 0.965 s  ClockTime = 1 s

Courant Number mean: 0.419044 max: 0.89403
Interface Courant Number mean: 0.00199572 max: 0.188373
deltaT = 0.20202
Time = 3.79798

smoothSolver:  Solving for alpha.water, Initial residual = 2.52947e-05, Final residual = 2.59429e-10, No Iterations 2
Phase-1 volume fraction = 0.5  Min(alpha.water) = 4.53782e-171  Max(alpha.water) = 1.00007
MULES: Correcting alpha.water
MULES: Correcting alpha.water
Phase-1 volume fraction = 0.5  Min(alpha.water) = 4.53782e-171  Max(alpha.water) = 1.00007
DICPCG:  Solving for p_rgh, Initial residual = 0.00376296, Final residual = 4.24956e-05, No Iterations 4
time step continuity errors : sum local = 0.000720088, global = -5.94066e-18, cumulative = -4.99114e-15
DICPCG:  Solving for p_rgh, Initial residual = 7.75333e-05, Final residual = 3.48739e-06, No Iterations 29
time step continuity errors : sum local = 7.14049e-05, global = -3.75156e-18, cumulative = -4.99489e-15
DICPCG:  Solving for p_rgh, Initial residual = 3.99953e-05, Final residual = 7.83451e-08, No Iterations 84
time step continuity errors : sum local = 1.3205e-06, global = -2.5968e-18, cumulative = -4.99749e-15
smoothSolver:  Solving for omega, Initial residual = 1.18861e-06, Final residual = 4.63081e-07, No Iterations 1
smoothSolver:  Solving for k, Initial residual = 0.860923, Final residual = 9.92348e-07, No Iterations 182
bounding k, min: 1.70564e-19 max: 4.00112e-16 average: 1.55325e-16
ExecutionTime = 0.978 s  ClockTime = 1 s

Courant Number mean: 0.430599 max: 0.92031
Interface Courant Number mean: 0.00240472 max: 0.191483
deltaT = 0.20202
Time = 4

smoothSolver:  Solving for alpha.water, Initial residual = 2.74535e-05, Final residual = 1.20144e-09, No Iterations 2
Phase-1 volume fraction = 0.5  Min(alpha.water) = 1.87124e-169  Max(alpha.water) = 1.00006
MULES: Correcting alpha.water
MULES: Correcting alpha.water
Phase-1 volume fraction = 0.5  Min(alpha.water) = 1.87124e-169  Max(alpha.water) = 1.00006
DICPCG:  Solving for p_rgh, Initial residual = 0.00366768, Final residual = 4.69423e-05, No Iterations 4
time step continuity errors : sum local = 0.000796471, global = -6.85814e-16, cumulative = -5.6833e-15
DICPCG:  Solving for p_rgh, Initial residual = 8.57524e-05, Final residual = 3.50736e-06, No Iterations 16
time step continuity errors : sum local = 7.68291e-05, global = -1.38193e-16, cumulative = -5.82149e-15
DICPCG:  Solving for p_rgh, Initial residual = 4.274e-05, Final residual = 6.27064e-08, No Iterations 89
time step continuity errors : sum local = 1.05011e-06, global = 4.08159e-16, cumulative = -5.41334e-15
smoothSolver:  Solving for omega, Initial residual = 1.03248e-06, Final residual = 4.74979e-07, No Iterations 1
smoothSolver:  Solving for k, Initial residual = 0.837054, Final residual = 9.79853e-07, No Iterations 183
bounding k, min: 1.70563e-19 max: 4.27137e-16 average: 1.6045e-16
ExecutionTime = 1.013 s  ClockTime = 1 s

yPlus yplus write:
    writing object yPlus
    patch topWall y+ : min = 1.80238e-08, max = 1.80238e-08, average = 1.80238e-08
    patch botWall y+ : min = 1.80238e-08, max = 1.80238e-08, average = 1.80238e-08

--> FOAM Warning :     functionObjects::grad grad1 cannot find required object U of type volScalarField
--> FOAM Warning :     functionObjects::grad grad1 cannot find required object U of type surfaceScalarField
--> FOAM Warning :     functionObjects::grad grad4 cannot find required object R of type volScalarField
--> FOAM Warning :     functionObjects::grad grad4 cannot find required object R of type surfaceScalarField
--> FOAM Warning :     functionObjects::grad grad4 cannot find required object R of type volVectorField
--> FOAM Warning :     functionObjects::grad grad4 cannot find required object R of type surfaceVectorField
--> FOAM Warning :     functionObjects::grad grad4 failed to execute.
Courant Number mean: 0.442438 max: 0.948599
Interface Courant Number mean: 0.00288166 max: 0.199217
deltaT = 0.2
Time = 4.2

smoothSolver:  Solving for alpha.water, Initial residual = 2.64842e-05, Final residual = 2.56799e-09, No Iterations 2
Phase-1 volume fraction = 0.5  Min(alpha.water) = 1.51983e-168  Max(alpha.water) = 1.00006
MULES: Correcting alpha.water
MULES: Correcting alpha.water
Phase-1 volume fraction = 0.5  Min(alpha.water) = 1.51983e-168  Max(alpha.water) = 1.00006
DICPCG:  Solving for p_rgh, Initial residual = 0.00390892, Final residual = 4.49536e-05, No Iterations 4
time step continuity errors : sum local = 0.000756097, global = 1.2904e-18, cumulative = -5.41205e-15
DICPCG:  Solving for p_rgh, Initial residual = 8.3247e-05, Final residual = 3.2432e-06, No Iterations 16
time step continuity errors : sum local = 7.8036e-05, global = 3.30872e-19, cumulative = -5.41171e-15
DICPCG:  Solving for p_rgh, Initial residual = 4.3014e-05, Final residual = 2.08618e-08, No Iterations 97
time step continuity errors : sum local = 3.47548e-07, global = 1.58687e-18, cumulative = -5.41013e-15
smoothSolver:  Solving for omega, Initial residual = 8.80434e-07, Final residual = 4.74008e-07, No Iterations 1
smoothSolver:  Solving for k, Initial residual = 0.810586, Final residual = 9.91941e-07, No Iterations 180
bounding k, min: 1.72278e-19 max: 4.5783e-16 average: 1.66494e-16
ExecutionTime = 1.138 s  ClockTime = 1 s

Courant Number mean: 0.449194 max: 0.966391
Interface Courant Number mean: 0.0031072 max: 0.200692
deltaT = 0.2
Time = 4.4

smoothSolver:  Solving for alpha.water, Initial residual = 2.5644e-05, Final residual = 1.41756e-09, No Iterations 2
Phase-1 volume fraction = 0.5  Min(alpha.water) = 4.01923e-168  Max(alpha.water) = 1.00006
MULES: Correcting alpha.water
MULES: Correcting alpha.water
Phase-1 volume fraction = 0.5  Min(alpha.water) = 4.01923e-168  Max(alpha.water) = 1.00006
DICPCG:  Solving for p_rgh, Initial residual = 0.00323798, Final residual = 3.92543e-05, No Iterations 4
time step continuity errors : sum local = 0.000665946, global = -5.4364e-16, cumulative = -5.95377e-15
DICPCG:  Solving for p_rgh, Initial residual = 7.48435e-05, Final residual = 3.45564e-06, No Iterations 19
time step continuity errors : sum local = 8.99807e-05, global = 5.42469e-16, cumulative = -5.4113e-15
DICPCG:  Solving for p_rgh, Initial residual = 3.97813e-05, Final residual = 2.51284e-08, No Iterations 97
time step continuity errors : sum local = 4.18498e-07, global = 5.412e-16, cumulative = -4.8701e-15
smoothSolver:  Solving for omega, Initial residual = 8.2138e-07, Final residual = 4.92351e-07, No Iterations 1
smoothSolver:  Solving for k, Initial residual = 0.781616, Final residual = 9.99974e-07, No Iterations 179
bounding k, min: 1.72277e-19 max: 4.92875e-16 average: 1.73198e-16
ExecutionTime = 1.335 s  ClockTime = 1 s

Courant Number mean: 0.460639 max: 0.993611
Interface Courant Number mean: 0.00318986 max: 0.20718
deltaT = 0.2
Time = 4.6

smoothSolver:  Solving for alpha.water, Initial residual = 2.22249e-05, Final residual = 3.86413e-09, No Iterations 2
Phase-1 volume fraction = 0.5  Min(alpha.water) = 1.53725e-166  Max(alpha.water) = 1.00005
MULES: Correcting alpha.water
MULES: Correcting alpha.water
Phase-1 volume fraction = 0.5  Min(alpha.water) = -1.15389e-120  Max(alpha.water) = 1.00005
DICPCG:  Solving for p_rgh, Initial residual = 0.00346287, Final residual = 3.91302e-05, No Iterations 4
time step continuity errors : sum local = 0.000667196, global = 1.17046e-18, cumulative = -4.86893e-15
DICPCG:  Solving for p_rgh, Initial residual = 7.43733e-05, Final residual = 2.65467e-06, No Iterations 71
time step continuity errors : sum local = 4.41082e-05, global = 4.81393e-18, cumulative = -4.86411e-15
DICPCG:  Solving for p_rgh, Initial residual = 3.84372e-05, Final residual = 8.81267e-08, No Iterations 89
time step continuity errors : sum local = 1.47609e-06, global = -1.90235e-20, cumulative = -4.86413e-15
smoothSolver:  Solving for omega, Initial residual = 7.48065e-07, Final residual = 5.00689e-07, No Iterations 1
smoothSolver:  Solving for k, Initial residual = 0.750069, Final residual = 9.86315e-07, No Iterations 177
bounding k, min: 1.7228e-19 max: 5.33051e-16 average: 1.80964e-16
ExecutionTime = 1.351 s  ClockTime = 1 s

Courant Number mean: 0.471459 max: 1.02074
Interface Courant Number mean: 0.00325585 max: 0.208537
deltaT = 0.175
Time = 4.775

smoothSolver:  Solving for alpha.water, Initial residual = 1.61707e-05, Final residual = 2.02599e-10, No Iterations 2
Phase-1 volume fraction = 0.5  Min(alpha.water) = 7.53707e-166  Max(alpha.water) = 1.00008
MULES: Correcting alpha.water
MULES: Correcting alpha.water
Phase-1 volume fraction = 0.5  Min(alpha.water) = -3.81185e-120  Max(alpha.water) = 1.00008
DICPCG:  Solving for p_rgh, Initial residual = 0.00238625, Final residual = 2.68677e-05, No Iterations 4
time step continuity errors : sum local = 0.000388051, global = -1.78909e-16, cumulative = -5.04304e-15
DICPCG:  Solving for p_rgh, Initial residual = 5.02912e-05, Final residual = 1.40713e-06, No Iterations 21
time step continuity errors : sum local = 2.07151e-05, global = -1.79558e-16, cumulative = -5.2226e-15
DICPCG:  Solving for p_rgh, Initial residual = 2.52034e-05, Final residual = 7.2647e-08, No Iterations 45
time step continuity errors : sum local = 1.06636e-06, global = -1.7862e-16, cumulative = -5.40122e-15
smoothSolver:  Solving for omega, Initial residual = 7.27823e-07, Final residual = 5.1694e-07, No Iterations 1
smoothSolver:  Solving for k, Initial residual = 0.714937, Final residual = 9.70065e-07, No Iterations 152
bounding k, min: 1.96729e-19 max: 5.76296e-16 average: 1.91814e-16
ExecutionTime = 1.37 s  ClockTime = 1 s

Courant Number mean: 0.422523 max: 0.917224
Interface Courant Number mean: 0.00293054 max: 0.187988
deltaT = 0.175
Time = 4.95

smoothSolver:  Solving for alpha.water, Initial residual = 1.95828e-05, Final residual = 3.11171e-10, No Iterations 2
Phase-1 volume fraction = 0.5  Min(alpha.water) = 1.25534e-165  Max(alpha.water) = 1.0001
MULES: Correcting alpha.water
MULES: Correcting alpha.water
Phase-1 volume fraction = 0.5  Min(alpha.water) = -5.71948e-120  Max(alpha.water) = 1.0001
DICPCG:  Solving for p_rgh, Initial residual = 0.00272365, Final residual = 3.14302e-05, No Iterations 4
time step continuity errors : sum local = 0.000451743, global = 1.14358e-16, cumulative = -5.28686e-15
DICPCG:  Solving for p_rgh, Initial residual = 5.80363e-05, Final residual = 2.23765e-06, No Iterations 16
time step continuity errors : sum local = 3.21445e-05, global = 1.16626e-16, cumulative = -5.17024e-15
DICPCG:  Solving for p_rgh, Initial residual = 2.87461e-05, Final residual = 7.5493e-08, No Iterations 45
time step continuity errors : sum local = 1.38818e-06, global = 5.98953e-17, cumulative = -5.11034e-15
smoothSolver:  Solving for omega, Initial residual = 6.90414e-07, Final residual = 5.2939e-07, No Iterations 1
smoothSolver:  Solving for k, Initial residual = 0.680707, Final residual = 9.74551e-07, No Iterations 151
bounding k, min: 1.96731e-19 max: 6.25861e-16 average: 2.01443e-16
ExecutionTime = 1.413 s  ClockTime = 1 s

Courant Number mean: 0.432501 max: 0.941253
Interface Courant Number mean: 0.00301155 max: 0.192442
deltaT = 0.175
Time = 5.125

smoothSolver:  Solving for alpha.water, Initial residual = 2.15501e-05, Final residual = 4.00342e-10, No Iterations 2
Phase-1 volume fraction = 0.5  Min(alpha.water) = 3.04424e-165  Max(alpha.water) = 1.00039
MULES: Correcting alpha.water
MULES: Correcting alpha.water
Phase-1 volume fraction = 0.5  Min(alpha.water) = -2.57795e-120  Max(alpha.water) = 1.00039
DICPCG:  Solving for p_rgh, Initial residual = 0.00323431, Final residual = 3.81904e-05, No Iterations 4
time step continuity errors : sum local = 0.000578812, global = -1.74423e-16, cumulative = -5.28476e-15
DICPCG:  Solving for p_rgh, Initial residual = 7.40861e-05, Final residual = 2.56528e-06, No Iterations 68
time step continuity errors : sum local = 3.6913e-05, global = -1.78873e-16, cumulative = -5.46364e-15
DICPCG:  Solving for p_rgh, Initial residual = 3.66872e-05, Final residual = 9.73215e-08, No Iterations 94
time step continuity errors : sum local = 1.39096e-06, global = -1.78866e-16, cumulative = -5.6425e-15
smoothSolver:  Solving for omega, Initial residual = 6.98225e-07, Final residual = 5.48647e-07, No Iterations 1
smoothSolver:  Solving for k, Initial residual = 0.644479, Final residual = 9.8674e-07, No Iterations 150
bounding k, min: 1.96731e-19 max: 6.83007e-16 average: 2.12645e-16
ExecutionTime = 1.441 s  ClockTime = 1 s

Courant Number mean: 0.442374 max: 0.965404
Interface Courant Number mean: 0.0030912 max: 0.196947
deltaT = 0.175
Time = 5.3

smoothSolver:  Solving for alpha.water, Initial residual = 2.4176e-05, Final residual = 2.27296e-10, No Iterations 2
Phase-1 volume fraction = 0.5  Min(alpha.water) = 1.49604e-164  Max(alpha.water) = 1.00038
MULES: Correcting alpha.water
MULES: Correcting alpha.water
Phase-1 volume fraction = 0.5  Min(alpha.water) = -7.98321e-124  Max(alpha.water) = 1.00038
DICPCG:  Solving for p_rgh, Initial residual = 0.00357736, Final residual = 3.92078e-05, No Iterations 4
time step continuity errors : sum local = 0.000562737, global = -2.52781e-18, cumulative = -5.64503e-15
DICPCG:  Solving for p_rgh, Initial residual = 6.90062e-05, Final residual = 2.58612e-06, No Iterations 16
time step continuity errors : sum local = 3.94054e-05, global = 1.66447e-18, cumulative = -5.64336e-15
DICPCG:  Solving for p_rgh, Initial residual = 3.33691e-05, Final residual = 7.45518e-08, No Iterations 94
time step continuity errors : sum local = 1.06554e-06, global = 3.84402e-18, cumulative = -5.63952e-15
smoothSolver:  Solving for omega, Initial residual = 6.81706e-07, Final residual = 5.63586e-07, No Iterations 1
smoothSolver:  Solving for k, Initial residual = 0.606478, Final residual = 9.73372e-07, No Iterations 150
bounding k, min: 1.96732e-19 max: 7.49279e-16 average: 2.25728e-16
ExecutionTime = 1.455 s  ClockTime = 1 s

Courant Number mean: 0.452003 max: 0.988778
Interface Courant Number mean: 0.0031569 max: 0.201548
deltaT = 0.175
Time = 5.475

smoothSolver:  Solving for alpha.water, Initial residual = 2.17774e-05, Final residual = 2.85852e-10, No Iterations 2
Phase-1 volume fraction = 0.5  Min(alpha.water) = 4.78066e-164  Max(alpha.water) = 1.00038
MULES: Correcting alpha.water
MULES: Correcting alpha.water
Phase-1 volume fraction = 0.5  Min(alpha.water) = -1.09234e-42  Max(alpha.water) = 1.00038
DICPCG:  Solving for p_rgh, Initial residual = 0.00294685, Final residual = 3.34152e-05, No Iterations 4
time step continuity errors : sum local = 0.000478344, global = -1.20709e-16, cumulative = -5.76023e-15
DICPCG:  Solving for p_rgh, Initial residual = 5.94074e-05, Final residual = 2.34821e-06, No Iterations 16
time step continuity errors : sum local = 3.51675e-05, global = 3.52682e-16, cumulative = -5.40755e-15
DICPCG:  Solving for p_rgh, Initial residual = 2.88987e-05, Final residual = 4.28867e-08, No Iterations 79
time step continuity errors : sum local = 6.15527e-07, global = -1.13215e-16, cumulative = -5.52076e-15
smoothSolver:  Solving for omega, Initial residual = 6.92433e-07, Final residual = 5.82408e-07, No Iterations 1
smoothSolver:  Solving for k, Initial residual = 0.566964, Final residual = 9.54022e-07, No Iterations 147
bounding k, min: 1.96733e-19 max: 8.26118e-16 average: 2.40971e-16
ExecutionTime = 1.469 s  ClockTime = 1 s

Courant Number mean: 0.46185 max: 1.01301
Interface Courant Number mean: 0.00323877 max: 0.207466
deltaT = 0.13125
Time = 5.60625

smoothSolver:  Solving for alpha.water, Initial residual = 1.70512e-05, Final residual = 7.88451e-10, No Iterations 2
Phase-1 volume fraction = 0.5  Min(alpha.water) = 1.04246e-163  Max(alpha.water) = 1.00038
MULES: Correcting alpha.water
MULES: Correcting alpha.water
Phase-1 volume fraction = 0.5  Min(alpha.water) = 1.04246e-163  Max(alpha.water) = 1.00038
DICPCG:  Solving for p_rgh, Initial residual = 0.002282, Final residual = 2.60007e-05, No Iterations 4
time step continuity errors : sum local = 0.000278034, global = -2.82547e-18, cumulative = -5.52359e-15
DICPCG:  Solving for p_rgh, Initial residual = 4.61001e-05, Final residual = 2.01343e-06, No Iterations 13
time step continuity errors : sum local = 2.39225e-05, global = 1.05175e-20, cumulative = -5.52358e-15
DICPCG:  Solving for p_rgh, Initial residual = 2.26582e-05, Final residual = 3.1521e-08, No Iterations 89
time step continuity errors : sum local = 3.38023e-07, global = 1.07844e-19, cumulative = -5.52347e-15
smoothSolver:  Solving for omega, Initial residual = 6.925e-07, Final residual = 5.91877e-07, No Iterations 1
smoothSolver:  Solving for k, Initial residual = 0.523516, Final residual = 9.53637e-07, No Iterations 122
bounding k, min: 2.61785e-19 max: 9.02664e-16 average: 2.60823e-16
ExecutionTime = 1.48 s  ClockTime = 1 s

Courant Number mean: 0.353635 max: 0.777448
Interface Courant Number mean: 0.00248626 max: 0.158424
deltaT = 0.13125
Time = 5.7375

smoothSolver:  Solving for alpha.water, Initial residual = 1.74049e-05, Final residual = 8.96803e-10, No Iterations 2
Phase-1 volume fraction = 0.5  Min(alpha.water) = 2.05675e-163  Max(alpha.water) = 1.00038
MULES: Correcting alpha.water
MULES: Correcting alpha.water
Phase-1 volume fraction = 0.5  Min(alpha.water) = 2.05675e-163  Max(alpha.water) = 1.00038
DICPCG:  Solving for p_rgh, Initial residual = 0.00238819, Final residual = 2.62325e-05, No Iterations 4
time step continuity errors : sum local = 0.000281143, global = -4.44364e-16, cumulative = -5.96783e-15
DICPCG:  Solving for p_rgh, Initial residual = 4.59396e-05, Final residual = 2.29236e-06, No Iterations 8
time step continuity errors : sum local = 2.85438e-05, global = 2.6533e-16, cumulative = -5.7025e-15
DICPCG:  Solving for p_rgh, Initial residual = 2.31831e-05, Final residual = 6.99306e-08, No Iterations 94
time step continuity errors : sum local = 7.43906e-07, global = 2.69589e-16, cumulative = -5.43291e-15
smoothSolver:  Solving for omega, Initial residual = 7.0692e-07, Final residual = 6.10298e-07, No Iterations 1
smoothSolver:  Solving for k, Initial residual = 0.489065, Final residual = 9.9413e-07, No Iterations 123
bounding k, min: 2.61786e-19 max: 9.90714e-16 average: 2.78097e-16
ExecutionTime = 1.492 s  ClockTime = 1 s

Courant Number mean: 0.360888 max: 0.794803
Interface Courant Number mean: 0.00254483 max: 0.162228
deltaT = 0.13125
Time = 5.86875

smoothSolver:  Solving for alpha.water, Initial residual = 1.82614e-05, Final residual = 1.35896e-09, No Iterations 2
Phase-1 volume fraction = 0.5  Min(alpha.water) = 8.6327e-163  Max(alpha.water) = 1.00038
MULES: Correcting alpha.water
MULES: Correcting alpha.water
Phase-1 volume fraction = 0.5  Min(alpha.water) = -1.31608e-42  Max(alpha.water) = 1.00038
DICPCG:  Solving for p_rgh, Initial residual = 0.00260788, Final residual = 0.000127433, No Iterations 2
time step continuity errors : sum local = 0.001357, global = 3.55539e-16, cumulative = -5.07738e-15
DICPCG:  Solving for p_rgh, Initial residual = 0.000223059, Final residual = 5.35922e-06, No Iterations 9
time step continuity errors : sum local = 6.19572e-05, global = -3.53617e-16, cumulative = -5.43099e-15
DICPCG:  Solving for p_rgh, Initial residual = 0.000110967, Final residual = 2.1434e-08, No Iterations 97
time step continuity errors : sum local = 2.3029e-07, global = -3.95468e-16, cumulative = -5.82646e-15
smoothSolver:  Solving for omega, Initial residual = 7.165e-07, Final residual = 6.2792e-07, No Iterations 1
smoothSolver:  Solving for k, Initial residual = 0.454094, Final residual = 9.99762e-07, No Iterations 125
bounding k, min: 2.61787e-19 max: 1.09295e-15 average: 2.9827e-16
ExecutionTime = 1.503 s  ClockTime = 1 s

Courant Number mean: 0.368119 max: 0.811956
Interface Courant Number mean: 0.00260072 max: 0.165397
deltaT = 0.13125
Time = 6

smoothSolver:  Solving for alpha.water, Initial residual = 1.81596e-05, Final residual = 7.06849e-10, No Iterations 2
Phase-1 volume fraction = 0.5  Min(alpha.water) = 1.3014e-162  Max(alpha.water) = 1.00038
MULES: Correcting alpha.water
MULES: Correcting alpha.water
Phase-1 volume fraction = 0.5  Min(alpha.water) = 1.3014e-162  Max(alpha.water) = 1.00038
DICPCG:  Solving for p_rgh, Initial residual = 0.00262156, Final residual = 0.000118867, No Iterations 2
time step continuity errors : sum local = 0.00126388, global = -2.61376e-18, cumulative = -5.82907e-15
DICPCG:  Solving for p_rgh, Initial residual = 0.000206413, Final residual = 6.28404e-06, No Iterations 9
time step continuity errors : sum local = 7.39816e-05, global = -5.59122e-19, cumulative = -5.82963e-15
DICPCG:  Solving for p_rgh, Initial residual = 9.84584e-05, Final residual = 2.3278e-08, No Iterations 97
time step continuity errors : sum local = 2.46443e-07, global = -3.59461e-16, cumulative = -6.18909e-15
smoothSolver:  Solving for omega, Initial residual = 7.39684e-07, Final residual = 6.4684e-07, No Iterations 1
smoothSolver:  Solving for k, Initial residual = 0.418903, Final residual = 9.86959e-07, No Iterations 127
bounding k, min: 2.61788e-19 max: 1.21215e-15 average: 3.21909e-16
ExecutionTime = 1.553 s  ClockTime = 1 s

yPlus yplus write:
    writing object yPlus
    patch topWall y+ : min = 1.80238e-08, max = 1.80238e-08, average = 1.80238e-08
    patch botWall y+ : min = 1.80238e-08, max = 1.80238e-08, average = 1.80238e-08

--> FOAM Warning :     functionObjects::grad grad1 cannot find required object U of type volScalarField
--> FOAM Warning :     functionObjects::grad grad1 cannot find required object U of type surfaceScalarField
--> FOAM Warning :     functionObjects::grad grad4 cannot find required object R of type volScalarField
--> FOAM Warning :     functionObjects::grad grad4 cannot find required object R of type surfaceScalarField
--> FOAM Warning :     functionObjects::grad grad4 cannot find required object R of type volVectorField
--> FOAM Warning :     functionObjects::grad grad4 cannot find required object R of type surfaceVectorField
[...]
bounding k, min: 3.28864e-19 max: 6.78854e-14 average: 1.24566e-14
ExecutionTime = 2.515 s  ClockTime = 2 s

Courant Number mean: 0.422003 max: 0.963797
Interface Courant Number mean: 0.00310672 max: 0.19566
deltaT = 0.104403
Time = 8.85157

smoothSolver:  Solving for alpha.water, Initial residual = 1.2351e-05, Final residual = 1.5979e-10, No Iterations 2
Phase-1 volume fraction = 0.5  Min(alpha.water) = 9.02111e-159  Max(alpha.water) = 1.00041
MULES: Correcting alpha.water
MULES: Correcting alpha.water
Phase-1 volume fraction = 0.5  Min(alpha.water) = 9.02111e-159  Max(alpha.water) = 1.00041
DICPCG:  Solving for p_rgh, Initial residual = 0.00168685, Final residual = 2.12193e-05, No Iterations 4
time step continuity errors : sum local = 0.000172774, global = -7.1314e-17, cumulative = -8.25828e-15
DICPCG:  Solving for p_rgh, Initial residual = 3.89797e-05, Final residual = 1.41605e-06, No Iterations 16
time step continuity errors : sum local = 1.21013e-05, global = -3.54058e-16, cumulative = -8.61234e-15
DICPCG:  Solving for p_rgh, Initial residual = 1.88478e-05, Final residual = 4.66097e-08, No Iterations 89
time step continuity errors : sum local = 3.78267e-07, global = -3.54643e-16, cumulative = -8.96698e-15
smoothSolver:  Solving for omega, Initial residual = 1.14546e-06, Final residual = 9.39862e-07, No Iterations 2
smoothSolver:  Solving for k, Initial residual = 0.0180518, Final residual = 9.49233e-07, No Iterations 125
bounding k, min: 3.28988e-19 max: 8.84545e-14 average: 1.60143e-14
ExecutionTime = 2.53 s  ClockTime = 2 s

Courant Number mean: 0.427256 max: 0.976274
Interface Courant Number mean: 0.00315316 max: 0.198277
deltaT = 0.104403
Time = 8.95597

smoothSolver:  Solving for alpha.water, Initial residual = 1.32229e-05, Final residual = 4.01184e-10, No Iterations 2
Phase-1 volume fraction = 0.5  Min(alpha.water) = 1.01793e-158  Max(alpha.water) = 1.00041
MULES: Correcting alpha.water
MULES: Correcting alpha.water
Phase-1 volume fraction = 0.5  Min(alpha.water) = 1.01793e-158  Max(alpha.water) = 1.00041
DICPCG:  Solving for p_rgh, Initial residual = 0.00185798, Final residual = 2.18349e-05, No Iterations 4
time step continuity errors : sum local = 0.000176967, global = -3.74427e-17, cumulative = -9.00442e-15
DICPCG:  Solving for p_rgh, Initial residual = 3.93023e-05, Final residual = 1.89438e-06, No Iterations 13
time step continuity errors : sum local = 1.63829e-05, global = -3.20875e-16, cumulative = -9.3253e-15
DICPCG:  Solving for p_rgh, Initial residual = 1.93172e-05, Final residual = 6.3013e-08, No Iterations 79
time step continuity errors : sum local = 5.11002e-07, global = -3.95965e-17, cumulative = -9.36489e-15
smoothSolver:  Solving for omega, Initial residual = 1.11982e-06, Final residual = 9.98979e-07, No Iterations 1
smoothSolver:  Solving for k, Initial residual = 0.0170553, Final residual = 9.80571e-07, No Iterations 125
bounding k, min: 3.29158e-19 max: 1.17892e-13 average: 2.09521e-14
ExecutionTime = 2.53 s  ClockTime = 2 s

Courant Number mean: 0.432441 max: 0.98879
Interface Courant Number mean: 0.00319257 max: 0.20135
deltaT = 0.104403
Time = 9.06037

smoothSolver:  Solving for alpha.water, Initial residual = 1.35836e-05, Final residual = 5.69363e-10, No Iterations 2
Phase-1 volume fraction = 0.5  Min(alpha.water) = 1.15829e-158  Max(alpha.water) = 1.0004
MULES: Correcting alpha.water
MULES: Correcting alpha.water
Phase-1 volume fraction = 0.5  Min(alpha.water) = 1.15829e-158  Max(alpha.water) = 1.0004
DICPCG:  Solving for p_rgh, Initial residual = 0.00162414, Final residual = 2.0611e-05, No Iterations 4
time step continuity errors : sum local = 0.000167508, global = -2.81961e-16, cumulative = -9.64685e-15
DICPCG:  Solving for p_rgh, Initial residual = 3.74184e-05, Final residual = 1.47622e-06, No Iterations 16
time step continuity errors : sum local = 1.31877e-05, global = -1.06007e-18, cumulative = -9.64791e-15
DICPCG:  Solving for p_rgh, Initial residual = 1.88903e-05, Final residual = 8.59731e-08, No Iterations 87
time step continuity errors : sum local = 7.01869e-07, global = 2.46478e-16, cumulative = -9.40144e-15
smoothSolver:  Solving for omega, Initial residual = 1.14378e-06, Final residual = 9.33832e-07, No Iterations 2
smoothSolver:  Solving for k, Initial residual = 0.0163716, Final residual = 9.83799e-07, No Iterations 127
bounding k, min: 3.29397e-19 max: 1.59898e-13 average: 2.79462e-14
ExecutionTime = 2.546 s  ClockTime = 2 s

Courant Number mean: 0.437664 max: 1.00204
Interface Courant Number mean: 0.00323925 max: 0.203948
deltaT = 0.0939626
Time = 9.15434

smoothSolver:  Solving for alpha.water, Initial residual = 1.34323e-05, Final residual = 5.99724e-10, No Iterations 2
Phase-1 volume fraction = 0.5  Min(alpha.water) = 1.32666e-158  Max(alpha.water) = 1.00039
MULES: Correcting alpha.water
MULES: Correcting alpha.water
Phase-1 volume fraction = 0.5  Min(alpha.water) = 1.32666e-158  Max(alpha.water) = 1.00039
DICPCG:  Solving for p_rgh, Initial residual = 0.00167051, Final residual = 2.09061e-05, No Iterations 4
time step continuity errors : sum local = 0.000151736, global = -5.92403e-17, cumulative = -9.46068e-15
DICPCG:  Solving for p_rgh, Initial residual = 3.79731e-05, Final residual = 1.09072e-06, No Iterations 16
time step continuity errors : sum local = 9.27303e-06, global = 1.94951e-16, cumulative = -9.26573e-15
DICPCG:  Solving for p_rgh, Initial residual = 1.89225e-05, Final residual = 4.30097e-08, No Iterations 79
time step continuity errors : sum local = 3.15311e-07, global = -3.15603e-16, cumulative = -9.58133e-15
smoothSolver:  Solving for omega, Initial residual = 1.10236e-06, Final residual = 9.85997e-07, No Iterations 1
smoothSolver:  Solving for k, Initial residual = 0.0156508, Final residual = 9.27735e-07, No Iterations 118
bounding k, min: 3.65766e-19 max: 2.15667e-13 average: 3.69794e-14
ExecutionTime = 2.566 s  ClockTime = 2 s

Courant Number mean: 0.398577 max: 0.913558
Interface Courant Number mean: 0.00295812 max: 0.185936
deltaT = 0.0939626
Time = 9.2483

smoothSolver:  Solving for alpha.water, Initial residual = 1.46667e-05, Final residual = 4.784e-10, No Iterations 2
Phase-1 volume fraction = 0.5  Min(alpha.water) = 1.64914e-158  Max(alpha.water) = 1.00039
MULES: Correcting alpha.water
MULES: Correcting alpha.water
Phase-1 volume fraction = 0.5  Min(alpha.water) = 1.64914e-158  Max(alpha.water) = 1.00039
DICPCG:  Solving for p_rgh, Initial residual = 0.00183825, Final residual = 2.36693e-05, No Iterations 4
time step continuity errors : sum local = 0.000172837, global = -6.77788e-17, cumulative = -9.64911e-15
DICPCG:  Solving for p_rgh, Initial residual = 4.32318e-05, Final residual = 2.09283e-06, No Iterations 8
time step continuity errors : sum local = 1.70804e-05, global = -7.01833e-17, cumulative = -9.71929e-15
DICPCG:  Solving for p_rgh, Initial residual = 2.18893e-05, Final residual = 8.80174e-08, No Iterations 87
time step continuity errors : sum local = 6.39443e-07, global = -6.96398e-17, cumulative = -9.78893e-15
smoothSolver:  Solving for omega, Initial residual = 1.14539e-06, Final residual = 9.22924e-07, No Iterations 2
smoothSolver:  Solving for k, Initial residual = 0.0156369, Final residual = 9.55794e-07, No Iterations 118
bounding k, min: 3.66154e-19 max: 2.95556e-13 average: 4.97537e-14
ExecutionTime = 2.577 s  ClockTime = 2 s

Courant Number mean: 0.403206 max: 0.925011
Interface Courant Number mean: 0.00299996 max: 0.188322
deltaT = 0.0939626
Time = 9.34226

smoothSolver:  Solving for alpha.water, Initial residual = 1.59859e-05, Final residual = 5.34491e-10, No Iterations 2
Phase-1 volume fraction = 0.5  Min(alpha.water) = 1.97912e-158  Max(alpha.water) = 1.00038
MULES: Correcting alpha.water
MULES: Correcting alpha.water
Phase-1 volume fraction = 0.5  Min(alpha.water) = 1.97912e-158  Max(alpha.water) = 1.00038
DICPCG:  Solving for p_rgh, Initial residual = 0.00202861, Final residual = 2.60394e-05, No Iterations 4
time step continuity errors : sum local = 0.000189541, global = -1.03762e-18, cumulative = -9.78997e-15
DICPCG:  Solving for p_rgh, Initial residual = 4.77051e-05, Final residual = 1.32326e-06, No Iterations 16
time step continuity errors : sum local = 1.20499e-05, global = -9.06699e-19, cumulative = -9.79087e-15
DICPCG:  Solving for p_rgh, Initial residual = 2.35539e-05, Final residual = 7.27883e-08, No Iterations 79
time step continuity errors : sum local = 5.36666e-07, global = -3.20419e-18, cumulative = -9.79408e-15
smoothSolver:  Solving for omega, Initial residual = 1.10733e-06, Final residual = 9.92804e-07, No Iterations 1
smoothSolver:  Solving for k, Initial residual = 0.0156154, Final residual = 9.98948e-07, No Iterations 118
bounding k, min: 3.66696e-19 max: 4.08337e-13 average: 6.7801e-14
ExecutionTime = 2.588 s  ClockTime = 2 s

Courant Number mean: 0.407783 max: 0.936471
Interface Courant Number mean: 0.00304008 max: 0.190945
deltaT = 0.0939626
Time = 9.43622

smoothSolver:  Solving for alpha.water, Initial residual = 1.70049e-05, Final residual = 3.10647e-10, No Iterations 2
Phase-1 volume fraction = 0.5  Min(alpha.water) = 2.61562e-158  Max(alpha.water) = 1.00039
MULES: Correcting alpha.water
MULES: Correcting alpha.water
Phase-1 volume fraction = 0.5  Min(alpha.water) = 2.61562e-158  Max(alpha.water) = 1.00039
DICPCG:  Solving for p_rgh, Initial residual = 0.00225412, Final residual = 2.8911e-05, No Iterations 4
time step continuity errors : sum local = 0.000210298, global = -1.06239e-18, cumulative = -9.79514e-15
DICPCG:  Solving for p_rgh, Initial residual = 5.2618e-05, Final residual = 2.62282e-06, No Iterations 18
time step continuity errors : sum local = 2.22791e-05, global = 8.44034e-19, cumulative = -9.7943e-15
DICPCG:  Solving for p_rgh, Initial residual = 2.65589e-05, Final residual = 9.19831e-08, No Iterations 89
time step continuity errors : sum local = 6.67885e-07, global = -7.26617e-19, cumulative = -9.79502e-15
smoothSolver:  Solving for omega, Initial residual = 1.17038e-06, Final residual = 9.40196e-07, No Iterations 2
smoothSolver:  Solving for k, Initial residual = 0.0159403, Final residual = 9.24567e-07, No Iterations 119
bounding k, min: 3.67474e-19 max: 5.73906e-13 average: 9.38673e-14
ExecutionTime = 2.599 s  ClockTime = 2 s

Courant Number mean: 0.412402 max: 0.948004
Interface Courant Number mean: 0.00308149 max: 0.19364
deltaT = 0.0939626
Time = 9.53019

smoothSolver:  Solving for alpha.water, Initial residual = 1.9001e-05, Final residual = 4.33468e-10, No Iterations 2
Phase-1 volume fraction = 0.5  Min(alpha.water) = 3.86823e-158  Max(alpha.water) = 1.00039
MULES: Correcting alpha.water
MULES: Correcting alpha.water
Phase-1 volume fraction = 0.5  Min(alpha.water) = 3.86823e-158  Max(alpha.water) = 1.00039
DICPCG:  Solving for p_rgh, Initial residual = 0.00255229, Final residual = 3.13532e-05, No Iterations 4
time step continuity errors : sum local = 0.000228777, global = -6.57108e-17, cumulative = -9.86073e-15
DICPCG:  Solving for p_rgh, Initial residual = 5.85779e-05, Final residual = 2.75372e-06, No Iterations 8
time step continuity errors : sum local = 2.42428e-05, global = -6.79216e-17, cumulative = -9.92866e-15
DICPCG:  Solving for p_rgh, Initial residual = 3.0126e-05, Final residual = 9.10089e-08, No Iterations 92
time step continuity errors : sum local = 6.5596e-07, global = -3.53441e-17, cumulative = -9.964e-15
smoothSolver:  Solving for omega, Initial residual = 1.15743e-06, Final residual = 9.39658e-07, No Iterations 2
smoothSolver:  Solving for k, Initial residual = 0.0161229, Final residual = 9.54644e-07, No Iterations 119
bounding k, min: 3.68601e-19 max: 8.12675e-13 average: 1.31319e-13
ExecutionTime = 2.604 s  ClockTime = 2 s

Courant Number mean: 0.416829 max: 0.95904
Interface Courant Number mean: 0.00311904 max: 0.196295
deltaT = 0.0939626
Time = 9.62415

smoothSolver:  Solving for alpha.water, Initial residual = 1.88083e-05, Final residual = 2.65647e-10, No Iterations 2
Phase-1 volume fraction = 0.5  Min(alpha.water) = 5.04486e-158  Max(alpha.water) = 1.00039
MULES: Correcting alpha.water
MULES: Correcting alpha.water
Phase-1 volume fraction = 0.5  Min(alpha.water) = 5.04486e-158  Max(alpha.water) = 1.00039
DICPCG:  Solving for p_rgh, Initial residual = 0.00268404, Final residual = 3.23714e-05, No Iterations 4
time step continuity errors : sum local = 0.000236364, global = 2.21759e-16, cumulative = -9.74224e-15
DICPCG:  Solving for p_rgh, Initial residual = 6.01982e-05, Final residual = 2.51129e-06, No Iterations 16
time step continuity errors : sum local = 2.32336e-05, global = -3.57642e-17, cumulative = -9.77801e-15
DICPCG:  Solving for p_rgh, Initial residual = 3.04386e-05, Final residual = 5.89473e-08, No Iterations 89
time step continuity errors : sum local = 4.24887e-07, global = -3.23155e-17, cumulative = -9.81032e-15
smoothSolver:  Solving for omega, Initial residual = 1.21182e-06, Final residual = 9.71168e-07, No Iterations 2
smoothSolver:  Solving for k, Initial residual = 0.0166432, Final residual = 9.44483e-07, No Iterations 119
bounding k, min: 3.70241e-19 max: 1.1692e-12 average: 1.86271e-13
ExecutionTime = 2.62 s  ClockTime = 2 s

Courant Number mean: 0.421334 max: 0.970403
Interface Courant Number mean: 0.00315859 max: 0.198708
deltaT = 0.0939626
Time = 9.71811

smoothSolver:  Solving for alpha.water, Initial residual = 1.8429e-05, Final residual = 2.4619e-10, No Iterations 2
Phase-1 volume fraction = 0.5  Min(alpha.water) = 7.69003e-158  Max(alpha.water) = 1.00039
MULES: Correcting alpha.water
MULES: Correcting alpha.water
Phase-1 volume fraction = 0.5  Min(alpha.water) = 7.69003e-158  Max(alpha.water) = 1.00039
DICPCG:  Solving for p_rgh, Initial residual = 0.00261364, Final residual = 3.07532e-05, No Iterations 4
time step continuity errors : sum local = 0.000224852, global = -3.17784e-17, cumulative = -9.8421e-15
DICPCG:  Solving for p_rgh, Initial residual = 5.71769e-05, Final residual = 2.70646e-06, No Iterations 8
time step continuity errors : sum local = 2.63703e-05, global = -3.39664e-17, cumulative = -9.87607e-15
DICPCG:  Solving for p_rgh, Initial residual = 2.86819e-05, Final residual = 8.08157e-08, No Iterations 79
time step continuity errors : sum local = 5.95721e-07, global = -3.10274e-17, cumulative = -9.90709e-15
smoothSolver:  Solving for omega, Initial residual = 1.311e-06, Final residual = 9.50779e-07, No Iterations 3
smoothSolver:  Solving for k, Initial residual = 0.0172291, Final residual = 9.44578e-07, No Iterations 120
bounding k, min: 3.72641e-19 max: 1.70535e-12 average: 2.68195e-13
ExecutionTime = 2.62 s  ClockTime = 2 s

Courant Number mean: 0.425739 max: 0.981123
Interface Courant Number mean: 0.00319557 max: 0.200978
deltaT = 0.0939626
Time = 9.81207

smoothSolver:  Solving for alpha.water, Initial residual = 1.66108e-05, Final residual = 2.9036e-10, No Iterations 2
Phase-1 volume fraction = 0.5  Min(alpha.water) = 8.87665e-158  Max(alpha.water) = 1.0004
MULES: Correcting alpha.water
MULES: Correcting alpha.water
Phase-1 volume fraction = 0.5  Min(alpha.water) = 8.87665e-158  Max(alpha.water) = 1.0004
DICPCG:  Solving for p_rgh, Initial residual = 0.0024434, Final residual = 2.90413e-05, No Iterations 4
time step continuity errors : sum local = 0.00021283, global = -6.3244e-17, cumulative = -9.97034e-15
DICPCG:  Solving for p_rgh, Initial residual = 5.34503e-05, Final residual = 1.80071e-06, No Iterations 71
time step continuity errors : sum local = 1.29523e-05, global = -3.1957e-17, cumulative = -1.00023e-14
DICPCG:  Solving for p_rgh, Initial residual = 2.68111e-05, Final residual = 7.23129e-08, No Iterations 79
time step continuity errors : sum local = 5.2574e-07, global = -6.28556e-17, cumulative = -1.00651e-14
smoothSolver:  Solving for omega, Initial residual = 1.46729e-06, Final residual = 9.32839e-07, No Iterations 4
smoothSolver:  Solving for k, Initial residual = 0.0177985, Final residual = 9.7333e-07, No Iterations 119
bounding k, min: 3.76176e-19 max: 2.51686e-12 average: 3.9026e-13
ExecutionTime = 2.635 s  ClockTime = 3 s

Courant Number mean: 0.430142 max: 0.992146
Interface Courant Number mean: 0.0032313 max: 0.203151
deltaT = 0.0939626
Time = 9.90604

smoothSolver:  Solving for alpha.water, Initial residual = 1.48654e-05, Final residual = 2.48666e-10, No Iterations 2
Phase-1 volume fraction = 0.5  Min(alpha.water) = 1.02102e-157  Max(alpha.water) = 1.00041
MULES: Correcting alpha.water
MULES: Correcting alpha.water
Phase-1 volume fraction = 0.5  Min(alpha.water) = 1.02102e-157  Max(alpha.water) = 1.00041
DICPCG:  Solving for p_rgh, Initial residual = 0.0024049, Final residual = 2.76096e-05, No Iterations 4
time step continuity errors : sum local = 0.000198451, global = -7.0486e-19, cumulative = -1.00659e-14
DICPCG:  Solving for p_rgh, Initial residual = 5.01268e-05, Final residual = 2.09039e-06, No Iterations 8
time step continuity errors : sum local = 1.61198e-05, global = 2.66448e-19, cumulative = -1.00656e-14
DICPCG:  Solving for p_rgh, Initial residual = 2.47313e-05, Final residual = 5.34811e-08, No Iterations 79
time step continuity errors : sum local = 3.84556e-07, global = -1.52577e-18, cumulative = -1.00671e-14
smoothSolver:  Solving for omega, Initial residual = 1.6738e-06, Final residual = 9.8576e-07, No Iterations 4
smoothSolver:  Solving for k, Initial residual = 0.0183569, Final residual = 9.37398e-07, No Iterations 119
bounding k, min: 3.81449e-19 max: 3.7353e-12 average: 5.73553e-13
ExecutionTime = 2.651 s  ClockTime = 3 s

Courant Number mean: 0.434531 max: 1.00297
Interface Courant Number mean: 0.00326576 max: 0.205179
deltaT = 0.0939626
Time = 10

smoothSolver:  Solving for alpha.water, Initial residual = 1.28909e-05, Final residual = 2.2803e-10, No Iterations 2
Phase-1 volume fraction = 0.5  Min(alpha.water) = 1.14332e-157  Max(alpha.water) = 1.00041
MULES: Correcting alpha.water
MULES: Correcting alpha.water
Phase-1 volume fraction = 0.5  Min(alpha.water) = 1.14332e-157  Max(alpha.water) = 1.00041
DICPCG:  Solving for p_rgh, Initial residual = 0.00217053, Final residual = 2.44058e-05, No Iterations 4
time step continuity errors : sum local = 0.000175497, global = -3.22812e-17, cumulative = -1.00994e-14
DICPCG:  Solving for p_rgh, Initial residual = 4.44312e-05, Final residual = 2.00468e-06, No Iterations 8
time step continuity errors : sum local = 1.49353e-05, global = -3.41481e-17, cumulative = -1.01335e-14
DICPCG:  Solving for p_rgh, Initial residual = 2.17223e-05, Final residual = 7.42218e-08, No Iterations 79
time step continuity errors : sum local = 5.35259e-07, global = 2.22519e-16, cumulative = -9.91102e-15
smoothSolver:  Solving for omega, Initial residual = 2.09973e-06, Final residual = 9.27352e-07, No Iterations 5
smoothSolver:  Solving for k, Initial residual = 0.0188084, Final residual = 9.41967e-07, No Iterations 119
bounding k, min: 3.89258e-19 max: 5.5661e-12 average: 8.49672e-13
ExecutionTime = 2.682 s  ClockTime = 3 s

yPlus yplus write:
    writing object yPlus
    patch topWall y+ : min = 1.80238e-08, max = 1.80238e-08, average = 1.80238e-08
    patch botWall y+ : min = 1.80238e-08, max = 1.80238e-08, average = 1.80238e-08

--> FOAM Warning :     functionObjects::grad grad1 cannot find required object U of type volScalarField
--> FOAM Warning :     functionObjects::grad grad1 cannot find required object U of type surfaceScalarField
--> FOAM Warning :     functionObjects::grad grad4 cannot find required object R of type volScalarField
--> FOAM Warning :     functionObjects::grad grad4 cannot find required object R of type surfaceScalarField
--> FOAM Warning :     functionObjects::grad grad4 cannot find required object R of type volVectorField
--> FOAM Warning :     functionObjects::grad grad4 cannot find required object R of type surfaceVectorField
--> FOAM Warning :     functionObjects::grad grad4 failed to execute.
End

Finalising parallel run
